New Line.l(r:p1rlv2-rdm1) Units=km Length=0.018383700000000003 bus1=rdm1.1.2 bus2=p1rlv2.1.2 switch=n enabled=y phases=2 Linecode=1P_UG_AL_1/0_Brenau_2

New Line.l(r:p1rlv1-rdm0) Units=km Length=0.0175868 bus1=rdm0.1.2 bus2=p1rlv1.1.2 switch=n enabled=y phases=2 Linecode=1P_UG_AL_1/0_Brenau_2

New Line.l(r:rdm0-rdm1) Units=km Length=0.0363066 bus1=rdm1.1.2 bus2=rdm0.1.2 switch=n enabled=y phases=2 Linecode=1P_UG_AL_1/0_Brenau_2

New Line.l(r:rdm1-rdt0lv) Units=km Length=0.00899647 bus1=rdt0lv.1.2 bus2=rdm1.1.2 switch=n enabled=y phases=2 Linecode=1P_UG_AL_1/0_Brenau_2

New Line.l(r:p1rlv3-rdm2) Units=km Length=0.0221948 bus1=rdm2.1.2 bus2=p1rlv3.1.2 switch=n enabled=y phases=2 Linecode=1P_UG_AL_1/0_Brenau_2

New Line.l(r:rdm2-rdt0lv) Units=km Length=0.0377451 bus1=rdt0lv.1.2 bus2=rdm2.1.2 switch=n enabled=y phases=2 Linecode=1P_UG_AL_1/0_Brenau_2

New Line.l(r:p1rlv4-rdt1lv) Units=km Length=0.018166700000000004 bus1=rdt1lv.1.2 bus2=p1rlv4.1.2 switch=n enabled=y phases=2 Linecode=1P_UG_AL_1/0_Brenau_2

New Line.l(r:p1rlv5-rdm4) Units=km Length=0.0215974 bus1=rdm4.1.2 bus2=p1rlv5.1.2 switch=n enabled=y phases=2 Linecode=1P_UG_AL_1/0_Brenau_2

New Line.l(r:rdm4-rdt2lv) Units=km Length=0.0191629 bus1=rdt2lv.1.2 bus2=rdm4.1.2 switch=n enabled=y phases=2 Linecode=1P_UG_AL_1/0_Brenau_2

New Line.l(r:p1rlv6-rdm5) Units=km Length=0.015014700000000002 bus1=rdm5.1.2 bus2=p1rlv6.1.2 switch=n enabled=y phases=2 Linecode=1P_UG_AL_1/0_Brenau_2

New Line.l(r:rdm5-rdt2lv) Units=km Length=0.0191669 bus1=rdt2lv.1.2 bus2=rdm5.1.2 switch=n enabled=y phases=2 Linecode=1P_UG_AL_1/0_Brenau_2

New Line.l(r:p1rlv7-rdt3lv) Units=km Length=0.0184976 bus1=rdt3lv.1.2 bus2=p1rlv7.1.2 switch=n enabled=y phases=2 Linecode=1P_OH_AL_2/0_Rucina_2

New Line.l(r:p1rlv8-rdt4lv) Units=km Length=0.023193500000000002 bus1=rdt4lv.1.2 bus2=p1rlv8.1.2 switch=n enabled=y phases=2 Linecode=1P_OH_AL_2/0_Rucina_2

New Line.l(r:p1rlv9-rdt5lv) Units=km Length=0.0185131 bus1=rdt5lv.1.2 bus2=p1rlv9.1.2 switch=n enabled=y phases=2 Linecode=1P_UG_AL_1/0_Brenau_2

New Line.l(r:p1rlv10-rdt6lv) Units=km Length=0.0199667 bus1=rdt6lv.1.2 bus2=p1rlv10.1.2 switch=n enabled=y phases=2 Linecode=1P_UG_AL_1/0_Brenau_2

New Line.l(r:p1rlv11-rdt7lv) Units=km Length=0.019399000000000003 bus1=rdt7lv.1.2 bus2=p1rlv11.1.2 switch=n enabled=y phases=2 Linecode=1P_UG_AL_1/0_Brenau_2

New Line.l(r:p1rlv12-rdt8lv) Units=km Length=0.0187983 bus1=rdt8lv.1.2 bus2=p1rlv12.1.2 switch=n enabled=y phases=2 Linecode=1P_UG_AL_1/0_Brenau_2

New Line.l(r:p1rlv13-rdm12) Units=km Length=0.0227819 bus1=rdm12.1.2 bus2=p1rlv13.1.2 switch=n enabled=y phases=2 Linecode=1P_UG_AL_1/0_Brenau_2

New Line.l(r:rdm12-rdt9lv) Units=km Length=0.0372937 bus1=rdt9lv.1.2 bus2=rdm12.1.2 switch=n enabled=y phases=2 Linecode=1P_UG_AL_1/0_Brenau_2

New Line.l(r:p1rlv22-rdm13) Units=km Length=0.0146367 bus1=rdm13.1.2 bus2=p1rlv22.1.2 switch=n enabled=y phases=2 Linecode=1P_UG_AL_1/0_Brenau_2

New Line.l(r:rdm13-rdt9lv) Units=km Length=0.0461539 bus1=rdt9lv.1.2 bus2=rdm13.1.2 switch=n enabled=y phases=2 Linecode=1P_UG_AL_1/0_Brenau_2

New Line.l(r:p1rlv14-rdm14) Units=km Length=0.05821010000000001 bus1=rdm14.1.2 bus2=p1rlv14.1.2 switch=n enabled=y phases=2 Linecode=1P_UG_AL_1/0_Brenau_2

New Line.l(r:p1rlv17-rdm14) Units=km Length=0.015692 bus1=rdm14.1.2 bus2=p1rlv17.1.2 switch=n enabled=y phases=2 Linecode=1P_UG_AL_1/0_Brenau_2

New Line.l(r:rdm14-rdt10lv) Units=km Length=0.00937636 bus1=rdt10lv.1.2 bus2=rdm14.1.2 switch=n enabled=y phases=2 Linecode=1P_UG_AL_2/0_Converse_2

New Line.l(r:p1rlv15-rdm15) Units=km Length=0.0617463 bus1=rdm15.1.2 bus2=p1rlv15.1.2 switch=n enabled=y phases=2 Linecode=1P_UG_AL_1/0_Brenau_2

New Line.l(r:rdm15-rdt10lv) Units=km Length=0.028743200000000003 bus1=rdt10lv.1.2 bus2=rdm15.1.2 switch=n enabled=y phases=2 Linecode=1P_UG_AL_1/0_Brenau_2

New Line.l(r:p1rlv16-rdt11lv) Units=km Length=0.0178794 bus1=rdt11lv.1.2 bus2=p1rlv16.1.2 switch=n enabled=y phases=2 Linecode=1P_UG_AL_1/0_Brenau_2

New Line.l(r:p1rlv18-rdt11lv) Units=km Length=0.0243261 bus1=rdt11lv.1.2 bus2=p1rlv18.1.2 switch=n enabled=y phases=2 Linecode=1P_UG_AL_1/0_Brenau_2

New Line.l(r:p1rlv20-rdt12lv) Units=km Length=0.0402155 bus1=rdt12lv.1.2 bus2=p1rlv20.1.2 switch=n enabled=y phases=2 Linecode=1P_UG_AL_1/0_Brenau_2

New Line.l(r:p1rlv19-rdm19) Units=km Length=0.027671900000000003 bus1=rdm19.1.2 bus2=p1rlv19.1.2 switch=n enabled=y phases=2 Linecode=1P_UG_AL_1/0_Brenau_2

New Line.l(r:rdm19-rdt12lv) Units=km Length=0.018758700000000003 bus1=rdt12lv.1.2 bus2=rdm19.1.2 switch=n enabled=y phases=2 Linecode=1P_UG_AL_1/0_Brenau_2

New Line.l(r:p1rlv21-rdm21) Units=km Length=0.0215538 bus1=rdm21.1.2 bus2=p1rlv21.1.2 switch=n enabled=y phases=2 Linecode=1P_UG_AL_1/0_Brenau_2

New Line.l(r:rdm21-rdt12lv) Units=km Length=0.06084330000000001 bus1=rdt12lv.1.2 bus2=rdm21.1.2 switch=n enabled=y phases=2 Linecode=1P_UG_AL_1/0_Brenau_2

New Line.l(r:p1rlv23-rdt13lv) Units=km Length=0.0251681 bus1=rdt13lv.1.2 bus2=p1rlv23.1.2 switch=n enabled=y phases=2 Linecode=1P_UG_AL_1/0_Brenau_2

New Line.l(r:p1rlv24-rdm23) Units=km Length=0.0325623 bus1=rdm23.1.2 bus2=p1rlv24.1.2 switch=n enabled=y phases=2 Linecode=1P_UG_AL_1/0_Brenau_2

New Line.l(r:rdm23-rdt14lv) Units=km Length=0.0195574 bus1=rdt14lv.1.2 bus2=rdm23.1.2 switch=n enabled=y phases=2 Linecode=1P_UG_AL_1/0_Brenau_2

New Line.l(r:p1rlv25-rdm24) Units=km Length=0.0294133 bus1=rdm24.1.2 bus2=p1rlv25.1.2 switch=n enabled=y phases=2 Linecode=1P_UG_AL_1/0_Brenau_2

New Line.l(r:rdm24-rdt14lv) Units=km Length=0.00992627 bus1=rdt14lv.1.2 bus2=rdm24.1.2 switch=n enabled=y phases=2 Linecode=1P_UG_AL_1/0_Brenau_2

New Line.l(r:p1rlv26-rdm25) Units=km Length=0.0309144 bus1=rdm25.1.2 bus2=p1rlv26.1.2 switch=n enabled=y phases=2 Linecode=1P_UG_AL_1/0_Brenau_2

New Line.l(r:p1rlv27-rdm26) Units=km Length=0.0320607 bus1=rdm26.1.2 bus2=p1rlv27.1.2 switch=n enabled=y phases=2 Linecode=1P_UG_AL_1/0_Brenau_2

New Line.l(r:rdm25-rdm26) Units=km Length=0.0093602 bus1=rdm25.1.2 bus2=rdm26.1.2 switch=n enabled=y phases=2 Linecode=1P_UG_AL_1/0_Brenau_2

New Line.l(r:rdm25-rdt15lv) Units=km Length=0.00937431 bus1=rdt15lv.1.2 bus2=rdm25.1.2 switch=n enabled=y phases=2 Linecode=1P_UG_AL_1/0_Brenau_2

New Line.l(r:p1rlv28-rdm27) Units=km Length=0.0346772 bus1=rdm27.1.2 bus2=p1rlv28.1.2 switch=n enabled=y phases=2 Linecode=1P_UG_AL_1/0_Brenau_2

New Line.l(r:p1rlv29-rdm28) Units=km Length=0.035066 bus1=rdm28.1.2 bus2=p1rlv29.1.2 switch=n enabled=y phases=2 Linecode=1P_UG_AL_1/0_Brenau_2

New Line.l(r:rdm27-rdm28) Units=km Length=0.0198457 bus1=rdm27.1.2 bus2=rdm28.1.2 switch=n enabled=y phases=2 Linecode=1P_UG_AL_1/0_Brenau_2

New Line.l(r:rdm27-rdt15lv) Units=km Length=0.0093668 bus1=rdt15lv.1.2 bus2=rdm27.1.2 switch=n enabled=y phases=2 Linecode=1P_UG_AL_1/0_Brenau_2

New Line.l(r:p1rlv31-rdm30) Units=km Length=0.012969 bus1=rdm30.1.2 bus2=p1rlv31.1.2 switch=n enabled=y phases=2 Linecode=1P_UG_AL_1/0_Brenau_2

New Line.l(r:p1rlv30-rdm29) Units=km Length=0.027247 bus1=rdm29.1.2 bus2=p1rlv30.1.2 switch=n enabled=y phases=2 Linecode=1P_UG_AL_1/0_Brenau_2

New Line.l(r:rdm29-rdm30) Units=km Length=0.0923753 bus1=rdm30.1.2 bus2=rdm29.1.2 switch=n enabled=y phases=2 Linecode=1P_UG_AL_1/0_Brenau_2

New Line.l(r:rdm30-rdt16lv) Units=km Length=0.00735228 bus1=rdt16lv.1.2 bus2=rdm30.1.2 switch=n enabled=y phases=2 Linecode=1P_UG_AL_1/0_Brenau_2

New Line.l(r:p1rlv32-rdm31) Units=km Length=0.0179441 bus1=rdm31.1.2 bus2=p1rlv32.1.2 switch=n enabled=y phases=2 Linecode=1P_UG_AL_1/0_Brenau_2

New Line.l(r:rdm31-rdt16lv) Units=km Length=0.0146956 bus1=rdt16lv.1.2 bus2=rdm31.1.2 switch=n enabled=y phases=2 Linecode=1P_UG_AL_1/0_Brenau_2

New Line.l(r:p1rlv33-rdm32) Units=km Length=0.0357213 bus1=rdm32.1.2 bus2=p1rlv33.1.2 switch=n enabled=y phases=2 Linecode=1P_UG_AL_1/0_Brenau_2

New Line.l(r:rdm32-rdt17lv) Units=km Length=0.00604934 bus1=rdt17lv.1.2 bus2=rdm32.1.2 switch=n enabled=y phases=2 Linecode=1P_UG_AL_1/0_Brenau_2

New Line.l(r:p1rlv34-rdm33) Units=km Length=0.032312 bus1=rdm33.1.2 bus2=p1rlv34.1.2 switch=n enabled=y phases=2 Linecode=1P_UG_AL_1/0_Brenau_2

New Line.l(r:rdm33-rdt17lv) Units=km Length=0.0160425 bus1=rdt17lv.1.2 bus2=rdm33.1.2 switch=n enabled=y phases=2 Linecode=1P_UG_AL_1/0_Brenau_2

New Line.l(r:p1rlv35-rdm34) Units=km Length=0.0340443 bus1=rdm34.1.2 bus2=p1rlv35.1.2 switch=n enabled=y phases=2 Linecode=1P_UG_AL_1/0_Brenau_2

New Line.l(r:rdm34-rdt18lv) Units=km Length=0.014111 bus1=rdt18lv.1.2 bus2=rdm34.1.2 switch=n enabled=y phases=2 Linecode=1P_UG_AL_1/0_Brenau_2

New Line.l(r:p1rlv36-rdm35) Units=km Length=0.0362687 bus1=rdm35.1.2 bus2=p1rlv36.1.2 switch=n enabled=y phases=2 Linecode=1P_UG_AL_1/0_Brenau_2

New Line.l(r:p1rlv37-rdm36) Units=km Length=0.0221785 bus1=rdm36.1.2 bus2=p1rlv37.1.2 switch=n enabled=y phases=2 Linecode=1P_UG_AL_1/0_Brenau_2

New Line.l(r:rdm35-rdm36) Units=km Length=0.00640824 bus1=rdm35.1.2 bus2=rdm36.1.2 switch=n enabled=y phases=2 Linecode=1P_UG_AL_1/0_Brenau_2

New Line.l(r:rdm35-rdt18lv) Units=km Length=0.00640824 bus1=rdt18lv.1.2 bus2=rdm35.1.2 switch=n enabled=y phases=2 Linecode=1P_UG_AL_1/0_Brenau_2

New Line.l(r:p1rlv39-rdt19lv) Units=km Length=0.0208279 bus1=rdt19lv.1.2 bus2=p1rlv39.1.2 switch=n enabled=y phases=2 Linecode=1P_UG_AL_1/0_Brenau_2

New Line.l(r:p1rlv38-rdm37) Units=km Length=0.0180959 bus1=rdm37.1.2 bus2=p1rlv38.1.2 switch=n enabled=y phases=2 Linecode=1P_UG_AL_1/0_Brenau_2

New Line.l(r:p1rlv40-rdm39) Units=km Length=0.0263987 bus1=rdm39.1.2 bus2=p1rlv40.1.2 switch=n enabled=y phases=2 Linecode=1P_UG_AL_1/0_Brenau_2

New Line.l(r:rdm37-rdm39) Units=km Length=0.0436654 bus1=rdm37.1.2 bus2=rdm39.1.2 switch=n enabled=y phases=2 Linecode=1P_UG_AL_1/0_Brenau_2

New Line.l(r:rdm37-rdt19lv) Units=km Length=0.0086552 bus1=rdt19lv.1.2 bus2=rdm37.1.2 switch=n enabled=y phases=2 Linecode=1P_UG_AL_2/0_Converse_2

New Line.l(r:p1rlv41-rdt20lv) Units=km Length=0.0216632 bus1=rdt20lv.1.2 bus2=p1rlv41.1.2 switch=n enabled=y phases=2 Linecode=1P_UG_AL_2/0_Converse_2

New Line.l(r:p1rlv42-rdt21lv) Units=km Length=0.0364543 bus1=rdt21lv.1.2 bus2=p1rlv42.1.2 switch=n enabled=y phases=2 Linecode=1P_UG_AL_1/0_Brenau_2

New Line.l(r:p1rlv43-rdm42) Units=km Length=0.019978 bus1=rdm42.1.2 bus2=p1rlv43.1.2 switch=n enabled=y phases=2 Linecode=1P_UG_AL_1/0_Brenau_2

New Line.l(r:rdm42-rdt22lv) Units=km Length=0.0227634 bus1=rdt22lv.1.2 bus2=rdm42.1.2 switch=n enabled=y phases=2 Linecode=1P_UG_AL_1/0_Brenau_2

New Line.l(r:p1rlv44-rdm43) Units=km Length=0.00944488 bus1=rdm43.1.2 bus2=p1rlv44.1.2 switch=n enabled=y phases=2 Linecode=1P_OH_AL_2/0_Rucina_2

New Line.l(r:rdm43-rdt22lv) Units=km Length=0.0303663 bus1=rdt22lv.1.2 bus2=rdm43.1.2 switch=n enabled=y phases=2 Linecode=1P_OH_AL_4/0_Zuzara_2

New Line.l(r:p1rlv45-rdt23lv) Units=km Length=0.0239824 bus1=rdt23lv.1.2 bus2=p1rlv45.1.2 switch=n enabled=y phases=2 Linecode=1P_OH_AL_2/0_Rucina_2

New Line.l(r:p1rlv56-rdt23lv) Units=km Length=0.0159325 bus1=rdt23lv.1.2 bus2=p1rlv56.1.2 switch=n enabled=y phases=2 Linecode=1P_OH_AL_2/0_Rucina_2

New Line.l(r:p1rlv47-rdt24lv) Units=km Length=0.0188484 bus1=rdt24lv.1.2 bus2=p1rlv47.1.2 switch=n enabled=y phases=2 Linecode=1P_UG_AL_1/0_Brenau_2

New Line.l(r:p1rlv46-rdm46) Units=km Length=0.0147948 bus1=rdm46.1.2 bus2=p1rlv46.1.2 switch=n enabled=y phases=2 Linecode=1P_UG_AL_1/0_Brenau_2

New Line.l(r:rdm46-rdt24lv) Units=km Length=0.00927623 bus1=rdt24lv.1.2 bus2=rdm46.1.2 switch=n enabled=y phases=2 Linecode=1P_UG_AL_1/0_Brenau_2

New Line.l(r:p1rlv48-rdm48) Units=km Length=0.0247935 bus1=rdm48.1.2 bus2=p1rlv48.1.2 switch=n enabled=y phases=2 Linecode=1P_UG_AL_1/0_Brenau_2

New Line.l(r:p1rlv54-rdm48) Units=km Length=0.0158987 bus1=rdm48.1.2 bus2=p1rlv54.1.2 switch=n enabled=y phases=2 Linecode=1P_UG_AL_1/0_Brenau_2

New Line.l(r:rdm48-rdt25lv) Units=km Length=0.00949279 bus1=rdt25lv.1.2 bus2=rdm48.1.2 switch=n enabled=y phases=2 Linecode=1P_UG_AL_1/0_Brenau_2

New Line.l(r:p1rlv55-rdm50) Units=km Length=0.0176398 bus1=rdm50.1.2 bus2=p1rlv55.1.2 switch=n enabled=y phases=2 Linecode=1P_UG_AL_1/0_Brenau_2

New Line.l(r:rdm50-rdt25lv) Units=km Length=0.00927623 bus1=rdt25lv.1.2 bus2=rdm50.1.2 switch=n enabled=y phases=2 Linecode=1P_UG_AL_1/0_Brenau_2

New Line.l(r:p1rlv50-rdt26lv) Units=km Length=0.0217115 bus1=rdt26lv.1.2 bus2=p1rlv50.1.2 switch=n enabled=y phases=2 Linecode=1P_UG_AL_1/0_Brenau_2

New Line.l(r:p1rlv49-rdm51) Units=km Length=0.0196132 bus1=rdm51.1.2 bus2=p1rlv49.1.2 switch=n enabled=y phases=2 Linecode=1P_UG_AL_1/0_Brenau_2

New Line.l(r:p1rlv53-rdm51) Units=km Length=0.015383 bus1=rdm51.1.2 bus2=p1rlv53.1.2 switch=n enabled=y phases=2 Linecode=1P_UG_AL_1/0_Brenau_2

New Line.l(r:rdm51-rdt26lv) Units=km Length=0.009500930000000001 bus1=rdt26lv.1.2 bus2=rdm51.1.2 switch=n enabled=y phases=2 Linecode=1P_UG_AL_1/0_Brenau_2

New Line.l(r:p1rlv51-rdm53) Units=km Length=0.0203502 bus1=rdm53.1.2 bus2=p1rlv51.1.2 switch=n enabled=y phases=2 Linecode=1P_UG_AL_1/0_Brenau_2

New Line.l(r:rdm53-rdt26lv) Units=km Length=0.027721 bus1=rdt26lv.1.2 bus2=rdm53.1.2 switch=n enabled=y phases=2 Linecode=1P_UG_AL_1/0_Brenau_2

New Line.l(r:p1rlv52-rdt27lv) Units=km Length=0.0025143600000000006 bus1=rdt27lv.1.2 bus2=p1rlv52.1.2 switch=n enabled=y phases=2 Linecode=1P_UG_AL_1/0_Brenau_2

New Line.l(r:p1rlv57-rdt28lv) Units=km Length=0.0146777 bus1=rdt28lv.1.2 bus2=p1rlv57.1.2 switch=n enabled=y phases=2 Linecode=1P_OH_AL_2/0_Rucina_2

New Line.l(r:p1rlv58-rdt28lv) Units=km Length=0.0344556 bus1=rdt28lv.1.2 bus2=p1rlv58.1.2 switch=n enabled=y phases=2 Linecode=1P_OH_AL_4/0_Zuzara_2

New Line.l(r:p1rlv59-rdm58) Units=km Length=0.04478240000000001 bus1=rdm58.1.2 bus2=p1rlv59.1.2 switch=n enabled=y phases=2 Linecode=1P_OH_AL_4/0_Zuzara_2

New Line.l(r:rdm58-rdt28lv) Units=km Length=0.0123764 bus1=rdt28lv.1.2 bus2=rdm58.1.2 switch=n enabled=y phases=2 Linecode=1P_OH_AL_2/0_Rucina_2

New Line.l(r:p1rlv74-rdt29lv) Units=km Length=0.0309005 bus1=rdt29lv.1.2 bus2=p1rlv74.1.2 switch=n enabled=y phases=2 Linecode=1P_OH_AL_4/0_Zuzara_2

New Line.l(r:p1rlv60-rdm59) Units=km Length=0.0180231 bus1=rdm59.1.2 bus2=p1rlv60.1.2 switch=n enabled=y phases=2 Linecode=1P_OH_AL_2/0_Rucina_2

New Line.l(r:rdm59-rdt29lv) Units=km Length=0.056652900000000006 bus1=rdt29lv.1.2 bus2=rdm59.1.2 switch=n enabled=y phases=2 Linecode=1P_OH_AL_4/0_Zuzara_2

New Line.l(r:p1rlv61-rdm60) Units=km Length=0.0269658 bus1=rdm60.1.2 bus2=p1rlv61.1.2 switch=n enabled=y phases=2 Linecode=1P_OH_AL_2/0_Rucina_2

New Line.l(r:rdm60-rdt29lv) Units=km Length=0.015516 bus1=rdt29lv.1.2 bus2=rdm60.1.2 switch=n enabled=y phases=2 Linecode=1P_OH_AL_2/0_Rucina_2

New Line.l(r:p1rlv63-rdt30lv) Units=km Length=0.0257025 bus1=rdt30lv.1.2 bus2=p1rlv63.1.2 switch=n enabled=y phases=2 Linecode=1P_OH_AL_2/0_Rucina_2

New Line.l(r:p1rlv62-rdm62) Units=km Length=0.026634 bus1=rdm62.1.2 bus2=p1rlv62.1.2 switch=n enabled=y phases=2 Linecode=1P_OH_AL_2/0_Rucina_2

New Line.l(r:rdm62-rdt30lv) Units=km Length=0.013904600000000001 bus1=rdt30lv.1.2 bus2=rdm62.1.2 switch=n enabled=y phases=2 Linecode=1P_OH_AL_2/0_Rucina_2

New Line.l(r:p1rlv64-rdm64) Units=km Length=0.024679700000000002 bus1=rdm64.1.2 bus2=p1rlv64.1.2 switch=n enabled=y phases=2 Linecode=1P_OH_AL_2/0_Rucina_2

New Line.l(r:rdm64-rdt30lv) Units=km Length=0.027809200000000003 bus1=rdt30lv.1.2 bus2=rdm64.1.2 switch=n enabled=y phases=2 Linecode=1P_OH_AL_4/0_Zuzara_2

New Line.l(r:p1rlv65-rdt31lv) Units=km Length=0.0249162 bus1=rdt31lv.1.2 bus2=p1rlv65.1.2 switch=n enabled=y phases=2 Linecode=1P_OH_AL_2/0_Rucina_2

New Line.l(r:p1rlv66-rdm66) Units=km Length=0.0311865 bus1=rdm66.1.2 bus2=p1rlv66.1.2 switch=n enabled=y phases=2 Linecode=1P_OH_AL_4/0_Zuzara_2

New Line.l(r:p1rlv67-rdm67) Units=km Length=0.0302837 bus1=rdm67.1.2 bus2=p1rlv67.1.2 switch=n enabled=y phases=2 Linecode=1P_OH_AL_4/0_Zuzara_2

New Line.l(r:rdm66-rdm67) Units=km Length=0.0184313 bus1=rdm66.1.2 bus2=rdm67.1.2 switch=n enabled=y phases=2 Linecode=1P_OH_AL_2/0_Rucina_2

New Line.l(r:rdm66-rdt31lv) Units=km Length=0.036851 bus1=rdt31lv.1.2 bus2=rdm66.1.2 switch=n enabled=y phases=2 Linecode=1P_OH_AL_4/0_Zuzara_2

New Line.l(r:p1rlv99-rdm68) Units=km Length=0.0283875 bus1=rdm68.1.2 bus2=p1rlv99.1.2 switch=n enabled=y phases=2 Linecode=1P_OH_AL_4/0_Zuzara_2

New Line.l(r:rdm68-rdt31lv) Units=km Length=0.05195290000000001 bus1=rdt31lv.1.2 bus2=rdm68.1.2 switch=n enabled=y phases=2 Linecode=1P_OH_AL_4/0_Zuzara_2

New Line.l(r:p1rlv70-rdt32lv) Units=km Length=0.0356664 bus1=rdt32lv.1.2 bus2=p1rlv70.1.2 switch=n enabled=y phases=2 Linecode=1P_OH_AL_4/0_Zuzara_2

New Line.l(r:p1rlv69-rdm70) Units=km Length=0.0277755 bus1=rdm70.1.2 bus2=p1rlv69.1.2 switch=n enabled=y phases=2 Linecode=1P_OH_AL_4/0_Zuzara_2

New Line.l(r:p1rlv68-rdm69) Units=km Length=0.0284938 bus1=rdm69.1.2 bus2=p1rlv68.1.2 switch=n enabled=y phases=2 Linecode=1P_OH_AL_4/0_Zuzara_2

New Line.l(r:rdm69-rdm70) Units=km Length=0.0195479 bus1=rdm70.1.2 bus2=rdm69.1.2 switch=n enabled=y phases=2 Linecode=1P_OH_AL_2/0_Rucina_2

New Line.l(r:rdm70-rdt32lv) Units=km Length=0.0195562 bus1=rdt32lv.1.2 bus2=rdm70.1.2 switch=n enabled=y phases=2 Linecode=1P_OH_AL_2/0_Rucina_2

New Line.l(r:p1rlv71-rdm72) Units=km Length=0.0295931 bus1=rdm72.1.2 bus2=p1rlv71.1.2 switch=n enabled=y phases=2 Linecode=1P_OH_AL_4/0_Zuzara_2

New Line.l(r:p1rlv72-rdm73) Units=km Length=0.03307 bus1=rdm73.1.2 bus2=p1rlv72.1.2 switch=n enabled=y phases=2 Linecode=1P_OH_AL_4/0_Zuzara_2

New Line.l(r:rdm72-rdm73) Units=km Length=0.013904600000000001 bus1=rdm72.1.2 bus2=rdm73.1.2 switch=n enabled=y phases=2 Linecode=1P_OH_AL_2/0_Rucina_2

New Line.l(r:rdm72-rdt32lv) Units=km Length=0.013904600000000001 bus1=rdt32lv.1.2 bus2=rdm72.1.2 switch=n enabled=y phases=2 Linecode=1P_OH_AL_2/0_Rucina_2

New Line.l(r:p1rlv73-rdt33lv) Units=km Length=0.0279593 bus1=rdt33lv.1.2 bus2=p1rlv73.1.2 switch=n enabled=y phases=2 Linecode=1P_OH_AL_4/0_Zuzara_2

New Line.l(r:p1rlv75-rdt34lv) Units=km Length=0.0244725 bus1=rdt34lv.1.2 bus2=p1rlv75.1.2 switch=n enabled=y phases=2 Linecode=1P_OH_AL_2/0_Rucina_2

New Line.l(r:p1rlv76-rdt35lv) Units=km Length=0.0241513 bus1=rdt35lv.1.2 bus2=p1rlv76.1.2 switch=n enabled=y phases=2 Linecode=1P_OH_AL_2/0_Rucina_2

New Line.l(r:p1rlv78-rdm78) Units=km Length=0.05463520000000001 bus1=rdm78.1.2 bus2=p1rlv78.1.2 switch=n enabled=y phases=2 Linecode=1P_UG_AL_1/0_Brenau_2

New Line.l(r:p1rlv79-rdm78) Units=km Length=0.038665500000000005 bus1=rdm78.1.2 bus2=p1rlv79.1.2 switch=n enabled=y phases=2 Linecode=1P_UG_AL_1/0_Brenau_2

New Line.l(r:p1rlv77-rdm77) Units=km Length=0.0245664 bus1=rdm77.1.2 bus2=p1rlv77.1.2 switch=n enabled=y phases=2 Linecode=1P_UG_AL_1/0_Brenau_2

New Line.l(r:rdm77-rdm78) Units=km Length=0.017672 bus1=rdm78.1.2 bus2=rdm77.1.2 switch=n enabled=y phases=2 Linecode=1P_UG_AL_1/0_Brenau_2

New Line.l(r:rdm78-rdt36lv) Units=km Length=0.0088358 bus1=rdt36lv.1.2 bus2=rdm78.1.2 switch=n enabled=y phases=2 Linecode=1P_UG_AL_4/0_Sweetbriar_2

New Line.l(r:p1rlv80-rdm80) Units=km Length=0.0379546 bus1=rdm80.1.2 bus2=p1rlv80.1.2 switch=n enabled=y phases=2 Linecode=1P_UG_AL_1/0_Brenau_2

New Line.l(r:p1rlv96-rdm81) Units=km Length=0.0259945 bus1=rdm81.1.2 bus2=p1rlv96.1.2 switch=n enabled=y phases=2 Linecode=1P_UG_AL_1/0_Brenau_2

New Line.l(r:rdm80-rdm81) Units=km Length=0.00884579 bus1=rdm80.1.2 bus2=rdm81.1.2 switch=n enabled=y phases=2 Linecode=1P_UG_AL_1/0_Brenau_2

New Line.l(r:rdm80-rdt36lv) Units=km Length=0.017672300000000002 bus1=rdt36lv.1.2 bus2=rdm80.1.2 switch=n enabled=y phases=2 Linecode=1P_UG_AL_1/0_Brenau_2

New Line.l(r:p1rlv81-rdm82) Units=km Length=0.0304119 bus1=rdm82.1.2 bus2=p1rlv81.1.2 switch=n enabled=y phases=2 Linecode=1P_UG_AL_1/0_Brenau_2

New Line.l(r:rdm82-rdt37lv) Units=km Length=0.0180951 bus1=rdt37lv.1.2 bus2=rdm82.1.2 switch=n enabled=y phases=2 Linecode=1P_UG_AL_1/0_Brenau_2

New Line.l(r:p1rlv82-rdm83) Units=km Length=0.0289084 bus1=rdm83.1.2 bus2=p1rlv82.1.2 switch=n enabled=y phases=2 Linecode=1P_UG_AL_1/0_Brenau_2

New Line.l(r:rdm83-rdt37lv) Units=km Length=0.00974002 bus1=rdt37lv.1.2 bus2=rdm83.1.2 switch=n enabled=y phases=2 Linecode=1P_UG_AL_1/0_Brenau_2

New Line.l(r:p1rlv83-rdm84) Units=km Length=0.0463902 bus1=rdm84.1.2 bus2=p1rlv83.1.2 switch=n enabled=y phases=2 Linecode=1P_UG_AL_1/0_Brenau_2

New Line.l(r:p1rlv84-rdm84) Units=km Length=0.03320780000000001 bus1=rdm84.1.2 bus2=p1rlv84.1.2 switch=n enabled=y phases=2 Linecode=1P_UG_AL_1/0_Brenau_2

New Line.l(r:rdm84-rdt38lv) Units=km Length=0.00983588 bus1=rdt38lv.1.2 bus2=rdm84.1.2 switch=n enabled=y phases=2 Linecode=1P_UG_AL_1/0_Brenau_2

New Line.l(r:p1rlv85-rdm86) Units=km Length=0.0301549 bus1=rdm86.1.2 bus2=p1rlv85.1.2 switch=n enabled=y phases=2 Linecode=1P_UG_AL_1/0_Brenau_2

New Line.l(r:rdm86-rdt38lv) Units=km Length=0.00983588 bus1=rdt38lv.1.2 bus2=rdm86.1.2 switch=n enabled=y phases=2 Linecode=1P_UG_AL_1/0_Brenau_2

New Line.l(r:p1rlv155-rdm88) Units=km Length=0.0235381 bus1=rdm88.1.2 bus2=p1rlv155.1.2 switch=n enabled=y phases=2 Linecode=1P_UG_AL_1/0_Brenau_2

New Line.l(r:p1rlv86-rdm87) Units=km Length=0.0122391 bus1=rdm87.1.2 bus2=p1rlv86.1.2 switch=n enabled=y phases=2 Linecode=1P_UG_AL_1/0_Brenau_2

New Line.l(r:rdm87-rdm88) Units=km Length=0.0285128 bus1=rdm88.1.2 bus2=rdm87.1.2 switch=n enabled=y phases=2 Linecode=1P_UG_AL_1/0_Brenau_2

New Line.l(r:rdm88-rdt39lv) Units=km Length=0.00982588 bus1=rdt39lv.1.2 bus2=rdm88.1.2 switch=n enabled=y phases=2 Linecode=1P_UG_AL_2/0_Converse_2

New Line.l(r:p1rlv88-rdt40lv) Units=km Length=0.0289764 bus1=rdt40lv.1.2 bus2=p1rlv88.1.2 switch=n enabled=y phases=2 Linecode=1P_UG_AL_1/0_Brenau_2

New Line.l(r:p1rlv89-rdm91) Units=km Length=0.0294058 bus1=rdm91.1.2 bus2=p1rlv89.1.2 switch=n enabled=y phases=2 Linecode=1P_UG_AL_1/0_Brenau_2

New Line.l(r:rdm91-rdt40lv) Units=km Length=0.048073000000000005 bus1=rdt40lv.1.2 bus2=rdm91.1.2 switch=n enabled=y phases=2 Linecode=1P_UG_AL_1/0_Brenau_2

New Line.l(r:p1rlv157-rdm93) Units=km Length=0.0286035 bus1=rdm93.1.2 bus2=p1rlv157.1.2 switch=n enabled=y phases=2 Linecode=1P_UG_AL_1/0_Brenau_2

New Line.l(r:p1rlv93-rdm92) Units=km Length=0.056373 bus1=rdm92.1.2 bus2=p1rlv93.1.2 switch=n enabled=y phases=2 Linecode=1P_UG_AL_1/0_Brenau_2

New Line.l(r:p1rlv87-rdm89) Units=km Length=0.0307581 bus1=rdm89.1.2 bus2=p1rlv87.1.2 switch=n enabled=y phases=2 Linecode=1P_UG_AL_1/0_Brenau_2

New Line.l(r:rdm89-rdm92) Units=km Length=0.00888441 bus1=rdm92.1.2 bus2=rdm89.1.2 switch=n enabled=y phases=2 Linecode=1P_UG_AL_1/0_Brenau_2

New Line.l(r:rdm92-rdm93) Units=km Length=0.00887411 bus1=rdm93.1.2 bus2=rdm92.1.2 switch=n enabled=y phases=2 Linecode=1P_UG_AL_1/0_Brenau_2

New Line.l(r:rdm93-rdt40lv) Units=km Length=0.0088841 bus1=rdt40lv.1.2 bus2=rdm93.1.2 switch=n enabled=y phases=2 Linecode=1P_UG_AL_2/0_Converse_2

New Line.l(r:p1rlv90-rdt41lv) Units=km Length=0.028802800000000003 bus1=rdt41lv.1.2 bus2=p1rlv90.1.2 switch=n enabled=y phases=2 Linecode=1P_UG_AL_1/0_Brenau_2

New Line.l(r:p1rlv160-rdt41lv) Units=km Length=0.0273885 bus1=rdt41lv.1.2 bus2=p1rlv160.1.2 switch=n enabled=y phases=2 Linecode=1P_UG_AL_1/0_Brenau_2

New Line.l(r:p1rlv94-rdt42lv) Units=km Length=0.0561362 bus1=rdt42lv.1.2 bus2=p1rlv94.1.2 switch=n enabled=y phases=2 Linecode=1P_OH_AL_4/0_Zuzara_2

New Line.l(r:p1rlv98-rdt42lv) Units=km Length=0.0254938 bus1=rdt42lv.1.2 bus2=p1rlv98.1.2 switch=n enabled=y phases=2 Linecode=1P_OH_AL_2/0_Rucina_2

New Line.l(r:p1rlv91-rdm96) Units=km Length=0.024406000000000004 bus1=rdm96.1.2 bus2=p1rlv91.1.2 switch=n enabled=y phases=2 Linecode=1P_OH_AL_2/0_Rucina_2

New Line.l(r:p1rlv92-rdm96) Units=km Length=0.0449259 bus1=rdm96.1.2 bus2=p1rlv92.1.2 switch=n enabled=y phases=2 Linecode=1P_OH_AL_4/0_Zuzara_2

New Line.l(r:rdm96-rdt42lv) Units=km Length=0.017005500000000003 bus1=rdt42lv.1.2 bus2=rdm96.1.2 switch=n enabled=y phases=2 Linecode=1P_OH_AL_2/0_Rucina_2

New Line.l(r:p1rlv97-rdm99) Units=km Length=0.0304417 bus1=rdm99.1.2 bus2=p1rlv97.1.2 switch=n enabled=y phases=2 Linecode=1P_OH_AL_4/0_Zuzara_2

New Line.l(r:rdm99-rdt42lv) Units=km Length=0.0340272 bus1=rdt42lv.1.2 bus2=rdm99.1.2 switch=n enabled=y phases=2 Linecode=1P_OH_AL_4/0_Zuzara_2

New Line.l(r:p1rlv95-rdt43lv) Units=km Length=0.0214797 bus1=rdt43lv.1.2 bus2=p1rlv95.1.2 switch=n enabled=y phases=2 Linecode=1P_UG_AL_1/0_Brenau_2

New Line.l(r:p1rlv100-rdt44lv) Units=km Length=0.001 bus1=rdt44lv.1.2 bus2=p1rlv100.1.2 switch=n enabled=y phases=2 Linecode=1P_OH_AL_4_Periwinkle_2

New Line.l(r:p1rlv101-rdt45lv) Units=km Length=0.001 bus1=rdt45lv.1.2 bus2=p1rlv101.1.2 switch=n enabled=y phases=2 Linecode=1P_OH_AL_4_Periwinkle_2

New Line.l(r:p1rlv102-rdt46lv) Units=km Length=0.04614070000000001 bus1=rdt46lv.1.2 bus2=p1rlv102.1.2 switch=n enabled=y phases=2 Linecode=1P_OH_AL_4/0_Zuzara_2

New Line.l(r:p1rlv103-rdt47lv) Units=km Length=0.062109 bus1=rdt47lv.1.2 bus2=p1rlv103.1.2 switch=n enabled=y phases=2 Linecode=1P_OH_AL_4/0_Zuzara_2

New Line.l(r:p1rlv104-rdt48lv) Units=km Length=0.001 bus1=rdt48lv.1.2 bus2=p1rlv104.1.2 switch=n enabled=y phases=2 Linecode=1P_OH_AL_4_Periwinkle_2

New Line.l(r:p1rlv105-rdt49lv) Units=km Length=0.0151761 bus1=rdt49lv.1.2 bus2=p1rlv105.1.2 switch=n enabled=y phases=2 Linecode=1P_OH_AL_2/0_Rucina_2

New Line.l(r:p1rlv106-rdt49lv) Units=km Length=0.0151761 bus1=rdt49lv.1.2 bus2=p1rlv106.1.2 switch=n enabled=y phases=2 Linecode=1P_OH_AL_2/0_Rucina_2

New Line.l(r:p1rlv107-rdm109) Units=km Length=0.112327 bus1=rdm109.1.2 bus2=p1rlv107.1.2 switch=n enabled=y phases=2 Linecode=1P_OH_AL_4/0_Zuzara_2

New Line.l(r:rdm109-rdt50lv) Units=km Length=0.0175749 bus1=rdt50lv.1.2 bus2=rdm109.1.2 switch=n enabled=y phases=2 Linecode=1P_OH_AL_2/0_Rucina_2

New Line.l(r:p1rlv108-rdm110) Units=km Length=0.0758576 bus1=rdm110.1.2 bus2=p1rlv108.1.2 switch=n enabled=y phases=2 Linecode=1P_OH_AL_4/0_Zuzara_2

New Line.l(r:rdm110-rdt50lv) Units=km Length=0.0351498 bus1=rdt50lv.1.2 bus2=rdm110.1.2 switch=n enabled=y phases=2 Linecode=1P_OH_AL_4/0_Zuzara_2

New Line.l(r:p1rlv109-rdt51lv) Units=km Length=0.0467738 bus1=rdt51lv.1.2 bus2=p1rlv109.1.2 switch=n enabled=y phases=2 Linecode=1P_OH_AL_4/0_Zuzara_2

New Line.l(r:p1rlv110-rdt52lv) Units=km Length=0.0156496 bus1=rdt52lv.1.2 bus2=p1rlv110.1.2 switch=n enabled=y phases=2 Linecode=1P_OH_AL_2/0_Rucina_2

New Line.l(r:p1rlv111-rdm113) Units=km Length=0.0484848 bus1=rdm113.1.2 bus2=p1rlv111.1.2 switch=n enabled=y phases=2 Linecode=1P_OH_AL_4/0_Zuzara_2

New Line.l(r:p1rlv113-rdm113) Units=km Length=0.0914243 bus1=rdm113.1.2 bus2=p1rlv113.1.2 switch=n enabled=y phases=2 Linecode=1P_OH_AL_4/0_Zuzara_2

New Line.l(r:rdm113-rdt53lv) Units=km Length=0.0181959 bus1=rdt53lv.1.2 bus2=rdm113.1.2 switch=n enabled=y phases=2 Linecode=1P_OH_AL_2/0_Rucina_2

New Line.l(r:p1rlv112-rdm114) Units=km Length=0.0711303 bus1=rdm114.1.2 bus2=p1rlv112.1.2 switch=n enabled=y phases=2 Linecode=1P_OH_AL_4/0_Zuzara_2

New Line.l(r:rdm114-rdt53lv) Units=km Length=0.0148789 bus1=rdt53lv.1.2 bus2=rdm114.1.2 switch=n enabled=y phases=2 Linecode=1P_OH_AL_2/0_Rucina_2

New Line.l(r:p1rlv115-rdt54lv) Units=km Length=0.0580108 bus1=rdt54lv.1.2 bus2=p1rlv115.1.2 switch=n enabled=y phases=2 Linecode=1P_OH_AL_4/0_Zuzara_2

New Line.l(r:p1rlv116-rdt54lv) Units=km Length=0.0287533 bus1=rdt54lv.1.2 bus2=p1rlv116.1.2 switch=n enabled=y phases=2 Linecode=1P_OH_AL_4/0_Zuzara_2

New Line.l(r:p1rlv114-rdm116) Units=km Length=0.0858145 bus1=rdm116.1.2 bus2=p1rlv114.1.2 switch=n enabled=y phases=2 Linecode=1P_OH_AL_4/0_Zuzara_2

New Line.l(r:rdm116-rdt54lv) Units=km Length=0.0183224 bus1=rdt54lv.1.2 bus2=rdm116.1.2 switch=n enabled=y phases=2 Linecode=1P_OH_AL_2/0_Rucina_2

New Line.l(r:p1rlv117-rdm119) Units=km Length=0.0369086 bus1=rdm119.1.2 bus2=p1rlv117.1.2 switch=n enabled=y phases=2 Linecode=1P_OH_AL_4/0_Zuzara_2

New Line.l(r:rdm119-rdt55lv) Units=km Length=0.0183125 bus1=rdt55lv.1.2 bus2=rdm119.1.2 switch=n enabled=y phases=2 Linecode=1P_OH_AL_2/0_Rucina_2

New Line.l(r:p1rlv118-rdm120) Units=km Length=0.0380737 bus1=rdm120.1.2 bus2=p1rlv118.1.2 switch=n enabled=y phases=2 Linecode=1P_OH_AL_4/0_Zuzara_2

New Line.l(r:rdm120-rdt55lv) Units=km Length=0.0366473 bus1=rdt55lv.1.2 bus2=rdm120.1.2 switch=n enabled=y phases=2 Linecode=1P_OH_AL_4/0_Zuzara_2

New Line.l(r:p1rlv119-rdt56lv) Units=km Length=0.032418 bus1=rdt56lv.1.2 bus2=p1rlv119.1.2 switch=n enabled=y phases=2 Linecode=1P_OH_AL_4/0_Zuzara_2

New Line.l(r:p1rlv120-rdt57lv) Units=km Length=0.039565300000000005 bus1=rdt57lv.1.2 bus2=p1rlv120.1.2 switch=n enabled=y phases=2 Linecode=1P_OH_AL_4/0_Zuzara_2

New Line.l(r:p1rlv121-rdt57lv) Units=km Length=0.0804106 bus1=rdt57lv.1.2 bus2=p1rlv121.1.2 switch=n enabled=y phases=2 Linecode=1P_OH_AL_4/0_Zuzara_2

New Line.l(r:p1rlv122-rdt57lv) Units=km Length=0.147795 bus1=rdt57lv.1.2 bus2=p1rlv122.1.2 switch=n enabled=y phases=2 Linecode=1P_OH_AL_4/0_Zuzara_2

New Line.l(r:p1rlv123-rdt58lv) Units=km Length=0.0386665 bus1=rdt58lv.1.2 bus2=p1rlv123.1.2 switch=n enabled=y phases=2 Linecode=1P_OH_AL_4/0_Zuzara_2

New Line.l(r:p1rlv124-rdt58lv) Units=km Length=0.0386665 bus1=rdt58lv.1.2 bus2=p1rlv124.1.2 switch=n enabled=y phases=2 Linecode=1P_OH_AL_4/0_Zuzara_2

New Line.l(r:p1rlv125-rdt59lv) Units=km Length=0.0500269 bus1=rdt59lv.1.2 bus2=p1rlv125.1.2 switch=n enabled=y phases=2 Linecode=1P_OH_AL_4/0_Zuzara_2

New Line.l(r:p1rlv126-rdt59lv) Units=km Length=0.0184998 bus1=rdt59lv.1.2 bus2=p1rlv126.1.2 switch=n enabled=y phases=2 Linecode=1P_OH_AL_2/0_Rucina_2

New Line.l(r:p1rlv127-rdt59lv) Units=km Length=0.0331722 bus1=rdt59lv.1.2 bus2=p1rlv127.1.2 switch=n enabled=y phases=2 Linecode=1P_OH_AL_4/0_Zuzara_2

New Line.l(r:p1rlv128-rdm130) Units=km Length=0.0354399 bus1=rdm130.1.2 bus2=p1rlv128.1.2 switch=n enabled=y phases=2 Linecode=1P_OH_AL_4/0_Zuzara_2

New Line.l(r:p1rlv134-rdm131)_s0 Units=km Length=0.0795472 bus1=rdm131.1.2 bus2=p1rlv134-rdm131x.1.2 switch=n enabled=y phases=2 Linecode=1P_OH_AL_4/0_Zuzara_2
