New Line.l(r:p1rlv1359-rdt793lv) Units=km Length=0.001 bus1=rdt793lv.1.2 bus2=p1rlv1359.1.2 switch=n enabled=y phases=2 Linecode=1P_OH_AL_4_Periwinkle_2

New Line.l(r:p1rlv1360-rdt794lv) Units=km Length=0.0555307 bus1=rdt794lv.1.2 bus2=p1rlv1360.1.2 switch=n enabled=y phases=2 Linecode=1P_OH_AL_4/0_Zuzara_2

New Line.l(r:p1rlv1361-rdt794lv) Units=km Length=0.0116259 bus1=rdt794lv.1.2 bus2=p1rlv1361.1.2 switch=n enabled=y phases=2 Linecode=1P_OH_AL_2/0_Rucina_2

New Line.l(r:p1rlv1362-rdt794lv) Units=km Length=0.0573582 bus1=rdt794lv.1.2 bus2=p1rlv1362.1.2 switch=n enabled=y phases=2 Linecode=1P_OH_AL_4/0_Zuzara_2

New Line.l(r:p1rlv1363-rdt794lv) Units=km Length=0.0310381 bus1=rdt794lv.1.2 bus2=p1rlv1363.1.2 switch=n enabled=y phases=2 Linecode=1P_OH_AL_4/0_Zuzara_2

New Line.l(r:p1rlv1364-rdt794lv) Units=km Length=0.0300463 bus1=rdt794lv.1.2 bus2=p1rlv1364.1.2 switch=n enabled=y phases=2 Linecode=1P_OH_AL_4/0_Zuzara_2

New Line.l(r:p1rlv1365-rdt795lv) Units=km Length=0.0638579 bus1=rdt795lv.1.2 bus2=p1rlv1365.1.2 switch=n enabled=y phases=2 Linecode=1P_OH_AL_4/0_Zuzara_2

New Line.l(r:p1rlv1367-rdt797lv) Units=km Length=0.0944191 bus1=rdt797lv.1.2 bus2=p1rlv1367.1.2 switch=n enabled=y phases=2 Linecode=1P_OH_AL_4/0_Zuzara_2

New Line.l(r:p1rlv1904-rdt798lv) Units=km Length=0.0400051 bus1=rdt798lv.1.2 bus2=p1rlv1904.1.2 switch=n enabled=y phases=2 Linecode=1P_OH_AL_4/0_Zuzara_2

New Line.l(r:p1rlv1368-rdm1368) Units=km Length=0.0998495 bus1=rdm1368.1.2 bus2=p1rlv1368.1.2 switch=n enabled=y phases=2 Linecode=1P_OH_AL_4/0_Zuzara_2

New Line.l(r:p1rlv1905-rdm1368) Units=km Length=0.0741747 bus1=rdm1368.1.2 bus2=p1rlv1905.1.2 switch=n enabled=y phases=2 Linecode=1P_OH_AL_4/0_Zuzara_2

New Line.l(r:rdm1368-rdt798lv) Units=km Length=0.0136689 bus1=rdt798lv.1.2 bus2=rdm1368.1.2 switch=n enabled=y phases=2 Linecode=1P_OH_AL_2/0_Rucina_2

New Line.l(r:p1rlv1906-rdm1371) Units=km Length=0.0839823 bus1=rdm1371.1.2 bus2=p1rlv1906.1.2 switch=n enabled=y phases=2 Linecode=1P_OH_AL_4/0_Zuzara_2

New Line.l(r:rdm1371-rdt798lv) Units=km Length=0.0182684 bus1=rdt798lv.1.2 bus2=rdm1371.1.2 switch=n enabled=y phases=2 Linecode=1P_OH_AL_2/0_Rucina_2

New Line.l(r:p1rlv1372-rdt800lv) Units=km Length=0.0386918 bus1=rdt800lv.1.2 bus2=p1rlv1372.1.2 switch=n enabled=y phases=2 Linecode=1P_UG_AL_4/0_Sweetbriar_2

New Line.l(r:p1rlv1863-rdt1110lv) Units=km Length=0.0918124 bus1=rdt1110lv.1.2 bus2=p1rlv1863.1.2 switch=n enabled=y phases=2 Linecode=1P_UG_AL_1/0_Brenau_2

New Line.l(r:p1rlv1862-rdm1866) Units=km Length=0.0412737 bus1=rdm1866.1.2 bus2=p1rlv1862.1.2 switch=n enabled=y phases=2 Linecode=1P_OH_AL_4/0_Zuzara_2

New Line.l(r:rdm1866-rdt1110lv) Units=km Length=0.0161444 bus1=rdt1110lv.1.2 bus2=rdm1866.1.2 switch=n enabled=y phases=2 Linecode=1P_OH_AL_2/0_Rucina_2

New Line.l(r:p1rlv1864-rdm1868) Units=km Length=0.0681341 bus1=rdm1868.1.2 bus2=p1rlv1864.1.2 switch=n enabled=y phases=2 Linecode=1P_OH_AL_4/0_Zuzara_2

New Line.l(r:rdm1868-rdt1110lv) Units=km Length=0.0277124 bus1=rdt1110lv.1.2 bus2=rdm1868.1.2 switch=n enabled=y phases=2 Linecode=1P_OH_AL_4/0_Zuzara_2

New Line.l(r:p1rlv1865-rdt1111lv) Units=km Length=0.0370739 bus1=rdt1111lv.1.2 bus2=p1rlv1865.1.2 switch=n enabled=y phases=2 Linecode=1P_OH_AL_4/0_Zuzara_2

New Line.l(r:p1rlv1868-rdt1114lv) Units=km Length=0.001 bus1=rdt1114lv.1.2 bus2=p1rlv1868.1.2 switch=n enabled=y phases=2 Linecode=1P_OH_AL_4_Periwinkle_2

New Line.l(r:p1rlv1869-rdt1115lv) Units=km Length=0.001 bus1=rdt1115lv.1.2 bus2=p1rlv1869.1.2 switch=n enabled=y phases=2 Linecode=1P_UG_AL_1/0_Brenau_2

New Line.l(r:p1rlv1870-rdm1874) Units=km Length=0.0441275 bus1=rdm1874.1.2 bus2=p1rlv1870.1.2 switch=n enabled=y phases=2 Linecode=1P_OH_AL_4/0_Zuzara_2

New Line.l(r:rdm1874-rdt1116lv) Units=km Length=0.0160778 bus1=rdt1116lv.1.2 bus2=rdm1874.1.2 switch=n enabled=y phases=2 Linecode=1P_OH_AL_2/0_Rucina_2

New Line.l(r:p1rlv1871-rdm1875) Units=km Length=0.0696996 bus1=rdm1875.1.2 bus2=p1rlv1871.1.2 switch=n enabled=y phases=2 Linecode=1P_OH_AL_4/0_Zuzara_2

New Line.l(r:rdm1875-rdt1116lv) Units=km Length=0.0160875 bus1=rdt1116lv.1.2 bus2=rdm1875.1.2 switch=n enabled=y phases=2 Linecode=1P_OH_AL_2/0_Rucina_2

New Line.l(r:p1rlv1872-rdm1876) Units=km Length=0.0947969 bus1=rdm1876.1.2 bus2=p1rlv1872.1.2 switch=n enabled=y phases=2 Linecode=1P_OH_AL_4/0_Zuzara_2

New Line.l(r:rdm1876-rdt1117lv) Units=km Length=0.0193076 bus1=rdt1117lv.1.2 bus2=rdm1876.1.2 switch=n enabled=y phases=2 Linecode=1P_OH_AL_2/0_Rucina_2

New Line.l(r:p1rlv1873-rdm1877) Units=km Length=0.0782976 bus1=rdm1877.1.2 bus2=p1rlv1873.1.2 switch=n enabled=y phases=2 Linecode=1P_OH_AL_4/0_Zuzara_2

New Line.l(r:rdm1877-rdt1117lv) Units=km Length=0.019316 bus1=rdt1117lv.1.2 bus2=rdm1877.1.2 switch=n enabled=y phases=2 Linecode=1P_OH_AL_2/0_Rucina_2

New Line.l(r:p1rlv1874-rdt1118lv) Units=km Length=0.0302837 bus1=rdt1118lv.1.2 bus2=p1rlv1874.1.2 switch=n enabled=y phases=2 Linecode=1P_OH_AL_4/0_Zuzara_2

New Line.l(r:p1rlv1875-rdt1119lv) Units=km Length=0.039782 bus1=rdt1119lv.1.2 bus2=p1rlv1875.1.2 switch=n enabled=y phases=2 Linecode=1P_OH_AL_4/0_Zuzara_2

New Line.l(r:p1rlv1876-rdt1119lv) Units=km Length=0.0628104 bus1=rdt1119lv.1.2 bus2=p1rlv1876.1.2 switch=n enabled=y phases=2 Linecode=1P_OH_AL_4/0_Zuzara_2

New Line.l(r:p1rlv1877-rdm1881) Units=km Length=0.0967 bus1=rdm1881.1.2 bus2=p1rlv1877.1.2 switch=n enabled=y phases=2 Linecode=1P_OH_AL_4/0_Zuzara_2

New Line.l(r:rdm1881-rdt1119lv) Units=km Length=0.019316 bus1=rdt1119lv.1.2 bus2=rdm1881.1.2 switch=n enabled=y phases=2 Linecode=1P_OH_AL_2/0_Rucina_2

New Line.l(r:p1rlv1878-rdt1120lv) Units=km Length=0.014846 bus1=rdt1120lv.1.2 bus2=p1rlv1878.1.2 switch=n enabled=y phases=2 Linecode=1P_OH_AL_2/0_Rucina_2

New Line.l(r:p1rlv1879-rdt1120lv) Units=km Length=0.001 bus1=rdt1120lv.1.2 bus2=p1rlv1879.1.2 switch=n enabled=y phases=2 Linecode=1P_OH_AL_4_Periwinkle_2

New Line.l(r:p1rlv1880-rdt1120lv) Units=km Length=0.014281 bus1=rdt1120lv.1.2 bus2=p1rlv1880.1.2 switch=n enabled=y phases=2 Linecode=1P_OH_AL_2/0_Rucina_2

New Line.l(r:p1rlv1881-rdt1121lv) Units=km Length=0.0243911 bus1=rdt1121lv.1.2 bus2=p1rlv1881.1.2 switch=n enabled=y phases=2 Linecode=1P_OH_AL_2/0_Rucina_2

New Line.l(r:p1rlv1882-rdt1121lv) Units=km Length=0.00389787 bus1=rdt1121lv.1.2 bus2=p1rlv1882.1.2 switch=n enabled=y phases=2 Linecode=1P_OH_AL_4_Periwinkle_2

New Line.l(r:p1rlv1883-rdt1121lv) Units=km Length=0.028201 bus1=rdt1121lv.1.2 bus2=p1rlv1883.1.2 switch=n enabled=y phases=2 Linecode=1P_OH_AL_4/0_Zuzara_2

New Line.l(r:p1rlv1888-rdt1124lv) Units=km Length=0.001 bus1=rdt1124lv.1.2 bus2=p1rlv1888.1.2 switch=n enabled=y phases=2 Linecode=1P_OH_AL_4_Periwinkle_2

New Line.l(r:p1rlv1889-rdt1125lv) Units=km Length=0.0314263 bus1=rdt1125lv.1.2 bus2=p1rlv1889.1.2 switch=n enabled=y phases=2 Linecode=1P_OH_AL_4/0_Zuzara_2

New Line.l(r:p1rlv1890-rdt1125lv) Units=km Length=0.00844213 bus1=rdt1125lv.1.2 bus2=p1rlv1890.1.2 switch=n enabled=y phases=2 Linecode=1P_OH_AL_2/0_Rucina_2

New Line.l(r:p1rlv1891-rdt1125lv) Units=km Length=0.023029 bus1=rdt1125lv.1.2 bus2=p1rlv1891.1.2 switch=n enabled=y phases=2 Linecode=1P_OH_AL_2/0_Rucina_2

New Line.l(r:p1rlv1892-rdt1126lv) Units=km Length=0.0171313 bus1=rdt1126lv.1.2 bus2=p1rlv1892.1.2 switch=n enabled=y phases=2 Linecode=1P_OH_AL_2/0_Rucina_2

New Line.l(r:p1rlv1893-rdt1127lv) Units=km Length=0.0470495 bus1=rdt1127lv.1.2 bus2=p1rlv1893.1.2 switch=n enabled=y phases=2 Linecode=1P_OH_AL_4/0_Zuzara_2

New Line.l(r:p1rlv1894-rdt1128lv) Units=km Length=0.0673578 bus1=rdt1128lv.1.2 bus2=p1rlv1894.1.2 switch=n enabled=y phases=2 Linecode=1P_OH_AL_4/0_Zuzara_2

New Line.l(r:p1rlv1895-rdt1129lv) Units=km Length=0.0112612 bus1=rdt1129lv.1.2 bus2=p1rlv1895.1.2 switch=n enabled=y phases=2 Linecode=1P_OH_AL_2/0_Rucina_2

New Line.l(r:p1rlv1896-rdt1130lv) Units=km Length=0.06946540000000001 bus1=rdt1130lv.1.2 bus2=p1rlv1896.1.2 switch=n enabled=y phases=2 Linecode=1P_OH_AL_4/0_Zuzara_2

New Line.l(r:p1rlv1897-rdt1131lv) Units=km Length=0.0336707 bus1=rdt1131lv.1.2 bus2=p1rlv1897.1.2 switch=n enabled=y phases=2 Linecode=1P_OH_AL_4/0_Zuzara_2

New Line.l(r:p1rlv1898-rdm1902) Units=km Length=0.0161159 bus1=rdm1902.1.2 bus2=p1rlv1898.1.2 switch=n enabled=y phases=2 Linecode=1P_OH_AL_2/0_Rucina_2

New Line.l(r:rdm1902-rdt1131lv) Units=km Length=0.0159021 bus1=rdt1131lv.1.2 bus2=rdm1902.1.2 switch=n enabled=y phases=2 Linecode=1P_OH_AL_2/0_Rucina_2

New Line.l(r:p1rlv1899-rdt1132lv) Units=km Length=0.0477475 bus1=rdt1132lv.1.2 bus2=p1rlv1899.1.2 switch=n enabled=y phases=2 Linecode=1P_OH_AL_4/0_Zuzara_2

New Line.l(r:p1rlv1900-rdt1133lv) Units=km Length=0.0043960200000000005 bus1=rdt1133lv.1.2 bus2=p1rlv1900.1.2 switch=n enabled=y phases=2 Linecode=1P_OH_AL_2/0_Rucina_2

New Line.l(r:p1rlv1901-rdt1134lv) Units=km Length=0.0421201 bus1=rdt1134lv.1.2 bus2=p1rlv1901.1.2 switch=n enabled=y phases=2 Linecode=1P_OH_AL_4/0_Zuzara_2

New Line.l(r:p1rlv1902-rdt1135lv) Units=km Length=0.0474181 bus1=rdt1135lv.1.2 bus2=p1rlv1902.1.2 switch=n enabled=y phases=2 Linecode=1P_OH_AL_4/0_Zuzara_2

New Line.l(r:p1rlv1903-rdt1136lv) Units=km Length=0.0197766 bus1=rdt1136lv.1.2 bus2=p1rlv1903.1.2 switch=n enabled=y phases=2 Linecode=1P_OH_AL_2/0_Rucina_2

New Line.l(r:p1rlv1907-rdt1137lv) Units=km Length=0.001 bus1=rdt1137lv.1.2 bus2=p1rlv1907.1.2 switch=n enabled=y phases=2 Linecode=1P_OH_AL_4_Periwinkle_2

New Line.l(r:p1rlv1908-rdt1138lv) Units=km Length=0.001 bus1=rdt1138lv.1.2 bus2=p1rlv1908.1.2 switch=n enabled=y phases=2 Linecode=1P_OH_AL_4_Periwinkle_2

New Line.l(r:p1rlv1912-rdm1911) Units=km Length=0.0212665 bus1=rdm1911.1.2 bus2=p1rlv1912.1.2 switch=n enabled=y phases=2 Linecode=1P_OH_AL_2/0_Rucina_2

New Line.l(r:p1rlv1909-rdm1910) Units=km Length=0.0329383 bus1=rdm1910.1.2 bus2=p1rlv1909.1.2 switch=n enabled=y phases=2 Linecode=1P_OH_AL_4/0_Zuzara_2

New Line.l(r:rdm1910-rdm1911) Units=km Length=0.0430685 bus1=rdm1911.1.2 bus2=rdm1910.1.2 switch=n enabled=y phases=2 Linecode=1P_OH_AL_4/0_Zuzara_2

New Line.l(r:rdm1911-rdt1139lv) Units=km Length=0.0154819 bus1=rdt1139lv.1.2 bus2=rdm1911.1.2 switch=n enabled=y phases=2 Linecode=1P_OH_AL_2/0_Rucina_2

New Line.l(r:p1rlv1913-rdm1912) Units=km Length=0.0188495 bus1=rdm1912.1.2 bus2=p1rlv1913.1.2 switch=n enabled=y phases=2 Linecode=1P_OH_AL_2/0_Rucina_2

New Line.l(r:p1rlv1914-rdm1913) Units=km Length=0.0043644 bus1=rdm1913.1.2 bus2=p1rlv1914.1.2 switch=n enabled=y phases=2 Linecode=1P_OH_AL_2/0_Rucina_2

New Line.l(r:rdm1912-rdm1913) Units=km Length=0.0476617 bus1=rdm1912.1.2 bus2=rdm1913.1.2 switch=n enabled=y phases=2 Linecode=1P_OH_AL_4/0_Zuzara_2

New Line.l(r:rdm1912-rdt1139lv) Units=km Length=0.0262989 bus1=rdt1139lv.1.2 bus2=rdm1912.1.2 switch=n enabled=y phases=2 Linecode=1P_OH_AL_2/0_Rucina_2

New Line.l(r:p1rlv1910-rdt1140lv) Units=km Length=0.012899600000000002 bus1=rdt1140lv.1.2 bus2=p1rlv1910.1.2 switch=n enabled=y phases=2 Linecode=1P_OH_AL_2/0_Rucina_2

New Line.l(r:p1rlv1911-rdt1140lv) Units=km Length=0.0235244 bus1=rdt1140lv.1.2 bus2=p1rlv1911.1.2 switch=n enabled=y phases=2 Linecode=1P_OH_AL_2/0_Rucina_2

New Line.l(r:p1rlv1916-rdt1141lv) Units=km Length=0.0623258 bus1=rdt1141lv.1.2 bus2=p1rlv1916.1.2 switch=n enabled=y phases=2 Linecode=1P_OH_AL_4/0_Zuzara_2

New Line.l(r:p1rlv1915-rdm1916) Units=km Length=0.0381318 bus1=rdm1916.1.2 bus2=p1rlv1915.1.2 switch=n enabled=y phases=2 Linecode=1P_UG_AL_1/0_Brenau_2

New Line.l(r:rdm1916-rdt1141lv) Units=km Length=0.0108759 bus1=rdt1141lv.1.2 bus2=rdm1916.1.2 switch=n enabled=y phases=2 Linecode=1P_OH_AL_2/0_Rucina_2

New Line.l(r:p1rlv1917-rdm1918) Units=km Length=0.100972 bus1=rdm1918.1.2 bus2=p1rlv1917.1.2 switch=n enabled=y phases=2 Linecode=1P_OH_AL_4/0_Zuzara_2

New Line.l(r:rdm1918-rdt1141lv) Units=km Length=0.0108885 bus1=rdt1141lv.1.2 bus2=rdm1918.1.2 switch=n enabled=y phases=2 Linecode=1P_OH_AL_2/0_Rucina_2

New Line.l(r:p1rlv1918-rdt1142lv) Units=km Length=0.0383289 bus1=rdt1142lv.1.2 bus2=p1rlv1918.1.2 switch=n enabled=y phases=2 Linecode=1P_OH_AL_4/0_Zuzara_2

New Line.l(r:p1rlv1921-rdt1143lv) Units=km Length=0.0854783 bus1=rdt1143lv.1.2 bus2=p1rlv1921.1.2 switch=n enabled=y phases=2 Linecode=1P_OH_AL_4/0_Zuzara_2

New Line.l(r:p1rlv1922-rdt1143lv) Units=km Length=0.05200960000000001 bus1=rdt1143lv.1.2 bus2=p1rlv1922.1.2 switch=n enabled=y phases=2 Linecode=1P_OH_AL_4/0_Zuzara_2

New Line.l(r:p1rlv1919-rdm1920) Units=km Length=0.0754892 bus1=rdm1920.1.2 bus2=p1rlv1919.1.2 switch=n enabled=y phases=2 Linecode=1P_OH_AL_4/0_Zuzara_2

New Line.l(r:p1rlv1920-rdm1920) Units=km Length=0.104674 bus1=rdm1920.1.2 bus2=p1rlv1920.1.2 switch=n enabled=y phases=2 Linecode=1P_OH_AL_4/0_Zuzara_2

New Line.l(r:rdm1920-rdt1143lv) Units=km Length=0.034073 bus1=rdt1143lv.1.2 bus2=rdm1920.1.2 switch=n enabled=y phases=2 Linecode=1P_OH_AL_4/0_Zuzara_2

New Line.l(r:p1rlv1923-rdm1924) Units=km Length=0.0831555 bus1=rdm1924.1.2 bus2=p1rlv1923.1.2 switch=n enabled=y phases=2 Linecode=1P_OH_AL_4/0_Zuzara_2

New Line.l(r:rdm1924-rdt1143lv) Units=km Length=0.0340865 bus1=rdt1143lv.1.2 bus2=rdm1924.1.2 switch=n enabled=y phases=2 Linecode=1P_OH_AL_4/0_Zuzara_2

New Line.l(r:p1rlv1924-rdt1144lv) Units=km Length=0.001 bus1=rdt1144lv.1.2 bus2=p1rlv1924.1.2 switch=n enabled=y phases=2 Linecode=1P_OH_AL_4_Periwinkle_2

New Line.l(r:p1rlv1925-rdt1145lv) Units=km Length=0.028217400000000004 bus1=rdt1145lv.1.2 bus2=p1rlv1925.1.2 switch=n enabled=y phases=2 Linecode=1P_OH_AL_4/0_Zuzara_2

New Line.l(r:p1rlv1926-rdt1145lv) Units=km Length=0.028217400000000004 bus1=rdt1145lv.1.2 bus2=p1rlv1926.1.2 switch=n enabled=y phases=2 Linecode=1P_OH_AL_4/0_Zuzara_2

New Line.l(r:p1rlv1928-rdt1146lv) Units=km Length=0.0885065 bus1=rdt1146lv.1.2 bus2=p1rlv1928.1.2 switch=n enabled=y phases=2 Linecode=1P_OH_AL_4/0_Zuzara_2

New Line.l(r:p1rlv1931-rdt1146lv) Units=km Length=0.109962 bus1=rdt1146lv.1.2 bus2=p1rlv1931.1.2 switch=n enabled=y phases=2 Linecode=1P_OH_AL_4/0_Zuzara_2

New Line.l(r:p1rlv1932-rdt1146lv) Units=km Length=0.143148 bus1=rdt1146lv.1.2 bus2=p1rlv1932.1.2 switch=n enabled=y phases=2 Linecode=1P_OH_AL_4/0_Zuzara_2

New Line.l(r:p1rlv1929-rdm1930) Units=km Length=0.0731915 bus1=rdm1930.1.2 bus2=p1rlv1929.1.2 switch=n enabled=y phases=2 Linecode=1P_OH_AL_4/0_Zuzara_2

New Line.l(r:p1rlv1930-rdm1930) Units=km Length=0.0767618 bus1=rdm1930.1.2 bus2=p1rlv1930.1.2 switch=n enabled=y phases=2 Linecode=1P_OH_AL_4/0_Zuzara_2

New Line.l(r:rdm1930-rdt1146lv) Units=km Length=0.0182279 bus1=rdt1146lv.1.2 bus2=rdm1930.1.2 switch=n enabled=y phases=2 Linecode=1P_OH_AL_2/0_Rucina_2

New Line.l(r:p1rlv1933-rdm1934) Units=km Length=0.00837055 bus1=rdm1934.1.2 bus2=p1rlv1933.1.2 switch=n enabled=y phases=2 Linecode=1P_OH_AL_2/0_Rucina_2

New Line.l(r:p1rlv1927-rdm1928) Units=km Length=0.0595902 bus1=rdm1928.1.2 bus2=p1rlv1927.1.2 switch=n enabled=y phases=2 Linecode=1P_OH_AL_4/0_Zuzara_2

New Line.l(r:rdm1928-rdm1934) Units=km Length=0.018217900000000002 bus1=rdm1934.1.2 bus2=rdm1928.1.2 switch=n enabled=y phases=2 Linecode=1P_OH_AL_2/0_Rucina_2

New Line.l(r:rdm1934-rdt1146lv) Units=km Length=0.018217900000000002 bus1=rdt1146lv.1.2 bus2=rdm1934.1.2 switch=n enabled=y phases=2 Linecode=1P_OH_AL_2/0_Rucina_2

New Line.l(r:p1rlv1934-rdt1147lv) Units=km Length=0.001 bus1=rdt1147lv.1.2 bus2=p1rlv1934.1.2 switch=n enabled=y phases=2 Linecode=1P_UG_AL_4/0_Sweetbriar_2

New Line.l(r:p1rlv1936-rdt1149lv) Units=km Length=0.001 bus1=rdt1149lv.1.2 bus2=p1rlv1936.1.2 switch=n enabled=y phases=2 Linecode=1P_UG_AL_1/0_Brenau_2

New Line.l(r:p1rlv1937-rdt1150lv) Units=km Length=0.099288 bus1=rdt1150lv.1.2 bus2=p1rlv1937.1.2 switch=n enabled=y phases=2 Linecode=1P_OH_AL_4/0_Zuzara_2

New Line.l(r:p1rlv1938-rdt1150lv) Units=km Length=0.0798413 bus1=rdt1150lv.1.2 bus2=p1rlv1938.1.2 switch=n enabled=y phases=2 Linecode=1P_OH_AL_4/0_Zuzara_2

New Line.l(r:p1rlv1939-rdt1151lv) Units=km Length=0.074647 bus1=rdt1151lv.1.2 bus2=p1rlv1939.1.2 switch=n enabled=y phases=2 Linecode=1P_OH_AL_4/0_Zuzara_2

New Line.l(r:p1rlv1941-rdt1151lv) Units=km Length=0.0966935 bus1=rdt1151lv.1.2 bus2=p1rlv1941.1.2 switch=n enabled=y phases=2 Linecode=1P_OH_AL_4/0_Zuzara_2

New Line.l(r:p1rlv1940-rdt1152lv) Units=km Length=0.050611 bus1=rdt1152lv.1.2 bus2=p1rlv1940.1.2 switch=n enabled=y phases=2 Linecode=1P_OH_AL_4/0_Zuzara_2

New Line.l(r:p1rlv1942-rdt1152lv) Units=km Length=0.12458100000000001 bus1=rdt1152lv.1.2 bus2=p1rlv1942.1.2 switch=n enabled=y phases=2 Linecode=1P_OH_AL_4/0_Zuzara_2

New Line.l(r:p1rlv1943-rdt1152lv) Units=km Length=0.0646262 bus1=rdt1152lv.1.2 bus2=p1rlv1943.1.2 switch=n enabled=y phases=2 Linecode=1P_OH_AL_4/0_Zuzara_2

New Line.l(r:p1rlv1944-rdt1152lv) Units=km Length=0.08321520000000002 bus1=rdt1152lv.1.2 bus2=p1rlv1944.1.2 switch=n enabled=y phases=2 Linecode=1P_OH_AL_4/0_Zuzara_2

New Line.l(r:p1rlv1945-rdt1152lv) Units=km Length=0.106537 bus1=rdt1152lv.1.2 bus2=p1rlv1945.1.2 switch=n enabled=y phases=2 Linecode=1P_OH_AL_4/0_Zuzara_2

New Line.l(r:p1rlv1946-rdt1153lv) Units=km Length=0.0213823 bus1=rdt1153lv.1.2 bus2=p1rlv1946.1.2 switch=n enabled=y phases=2 Linecode=1P_OH_AL_2/0_Rucina_2

New Line.l(r:p1rlv1947-rdt1153lv) Units=km Length=0.0213823 bus1=rdt1153lv.1.2 bus2=p1rlv1947.1.2 switch=n enabled=y phases=2 Linecode=1P_OH_AL_2/0_Rucina_2

New Line.l(r:p1rlv1948-rdt1154lv) Units=km Length=0.0456151 bus1=rdt1154lv.1.2 bus2=p1rlv1948.1.2 switch=n enabled=y phases=2 Linecode=1P_OH_AL_4/0_Zuzara_2

New Line.l(r:p1rlv1949-rdt1155lv) Units=km Length=0.027299 bus1=rdt1155lv.1.2 bus2=p1rlv1949.1.2 switch=n enabled=y phases=2 Linecode=1P_OH_AL_4/0_Zuzara_2

New Line.l(r:p1rlv1952-rdt1155lv) Units=km Length=0.0383389 bus1=rdt1155lv.1.2 bus2=p1rlv1952.1.2 switch=n enabled=y phases=2 Linecode=1P_OH_AL_4/0_Zuzara_2

New Line.l(r:p1rlv1953-rdt1155lv) Units=km Length=0.0179378 bus1=rdt1155lv.1.2 bus2=p1rlv1953.1.2 switch=n enabled=y phases=2 Linecode=1P_OH_AL_2/0_Rucina_2

New Line.l(r:p1rlv1954-rdt1155lv) Units=km Length=0.024829 bus1=rdt1155lv.1.2 bus2=p1rlv1954.1.2 switch=n enabled=y phases=2 Linecode=1P_OH_AL_2/0_Rucina_2

New Line.l(r:p1rlv1950-rdt1156lv) Units=km Length=0.0499967 bus1=rdt1156lv.1.2 bus2=p1rlv1950.1.2 switch=n enabled=y phases=2 Linecode=1P_OH_AL_4/0_Zuzara_2

New Line.l(r:p1rlv1951-rdm1955) Units=km Length=0.0284418 bus1=rdm1955.1.2 bus2=p1rlv1951.1.2 switch=n enabled=y phases=2 Linecode=1P_OH_AL_4/0_Zuzara_2

New Line.l(r:rdm1955-rdt1157lv) Units=km Length=0.018621 bus1=rdt1157lv.1.2 bus2=rdm1955.1.2 switch=n enabled=y phases=2 Linecode=1P_OH_AL_2/0_Rucina_2

New Line.l(r:p1rlv2624-rdm1956) Units=km Length=0.040952100000000005 bus1=rdm1956.1.2 bus2=p1rlv2624.1.2 switch=n enabled=y phases=2 Linecode=1P_OH_AL_4/0_Zuzara_2

New Line.l(r:rdm1956-rdt1157lv) Units=km Length=0.018622400000000004 bus1=rdt1157lv.1.2 bus2=rdm1956.1.2 switch=n enabled=y phases=2 Linecode=1P_OH_AL_2/0_Rucina_2

New Line.l(r:p1rlv1955-rdt1158lv) Units=km Length=0.001 bus1=rdt1158lv.1.2 bus2=p1rlv1955.1.2 switch=n enabled=y phases=2 Linecode=1P_OH_AL_4_Periwinkle_2

New Line.l(r:p1rlv1956-rdt1159lv) Units=km Length=0.0103683 bus1=rdt1159lv.1.2 bus2=p1rlv1956.1.2 switch=n enabled=y phases=2 Linecode=1P_OH_AL_2/0_Rucina_2

New Line.l(r:p1rlv1957-rdt1159lv) Units=km Length=0.0103683 bus1=rdt1159lv.1.2 bus2=p1rlv1957.1.2 switch=n enabled=y phases=2 Linecode=1P_OH_AL_2/0_Rucina_2

New Line.l(r:p1rlv1959-rdt1161lv) Units=km Length=0.001 bus1=rdt1161lv.1.2 bus2=p1rlv1959.1.2 switch=n enabled=y phases=2 Linecode=1P_OH_AL_4_Periwinkle_2

New Line.l(r:p1rlv1960-rdt1162lv) Units=km Length=0.001 bus1=rdt1162lv.1.2 bus2=p1rlv1960.1.2 switch=n enabled=y phases=2 Linecode=1P_OH_AL_4_Periwinkle_2

New Line.l(r:p1rlv1961-rdt1163lv) Units=km Length=0.0433983 bus1=rdt1163lv.1.2 bus2=p1rlv1961.1.2 switch=n enabled=y phases=2 Linecode=1P_OH_AL_4/0_Zuzara_2

New Line.l(r:p1rlv1962-rdt1164lv) Units=km Length=0.0987029 bus1=rdt1164lv.1.2 bus2=p1rlv1962.1.2 switch=n enabled=y phases=2 Linecode=1P_OH_AL_4/0_Zuzara_2

New Line.l(r:p1rlv1963-rdm1965) Units=km Length=0.0410817 bus1=rdm1965.1.2 bus2=p1rlv1963.1.2 switch=n enabled=y phases=2 Linecode=1P_OH_AL_4/0_Zuzara_2

New Line.l(r:rdm1965-rdt1165lv) Units=km Length=0.0192635 bus1=rdt1165lv.1.2 bus2=rdm1965.1.2 switch=n enabled=y phases=2 Linecode=1P_OH_AL_2/0_Rucina_2

New Line.l(r:p1rlv2614-rdm1966) Units=km Length=0.0366603 bus1=rdm1966.1.2 bus2=p1rlv2614.1.2 switch=n enabled=y phases=2 Linecode=1P_OH_AL_4/0_Zuzara_2

New Line.l(r:rdm1966-rdt1165lv) Units=km Length=0.0385467 bus1=rdt1165lv.1.2 bus2=rdm1966.1.2 switch=n enabled=y phases=2 Linecode=1P_OH_AL_4/0_Zuzara_2

New Line.l(r:p1rlv1964-rdt1166lv) Units=km Length=0.0271652 bus1=rdt1166lv.1.2 bus2=p1rlv1964.1.2 switch=n enabled=y phases=2 Linecode=1P_OH_AL_4/0_Zuzara_2

New Line.l(r:p1rlv1965-rdt1167lv) Units=km Length=0.0443407 bus1=rdt1167lv.1.2 bus2=p1rlv1965.1.2 switch=n enabled=y phases=2 Linecode=1P_OH_AL_4/0_Zuzara_2

New Line.l(r:p1rlv1966-rdt1167lv) Units=km Length=0.0315512 bus1=rdt1167lv.1.2 bus2=p1rlv1966.1.2 switch=n enabled=y phases=2 Linecode=1P_OH_AL_4/0_Zuzara_2

New Line.l(r:p1rlv1967-rdt1167lv) Units=km Length=0.0622512 bus1=rdt1167lv.1.2 bus2=p1rlv1967.1.2 switch=n enabled=y phases=2 Linecode=1P_OH_AL_4/0_Zuzara_2

New Line.l(r:p1rlv1968-rdt1168lv) Units=km Length=0.0632074 bus1=rdt1168lv.1.2 bus2=p1rlv1968.1.2 switch=n enabled=y phases=2 Linecode=1P_OH_AL_4/0_Zuzara_2

New Line.l(r:p1rlv1969-rdt1168lv) Units=km Length=0.05385480000000001 bus1=rdt1168lv.1.2 bus2=p1rlv1969.1.2 switch=n enabled=y phases=2 Linecode=1P_OH_AL_4/0_Zuzara_2

New Line.l(r:p1rlv1970-rdt1168lv) Units=km Length=0.04234240000000001 bus1=rdt1168lv.1.2 bus2=p1rlv1970.1.2 switch=n enabled=y phases=2 Linecode=1P_OH_AL_4/0_Zuzara_2

New Line.l(r:p1rlv1976-rdt1168lv) Units=km Length=0.0942711 bus1=rdt1168lv.1.2 bus2=p1rlv1976.1.2 switch=n enabled=y phases=2 Linecode=1P_OH_AL_4/0_Zuzara_2

New Line.l(r:p1rlv1977-rdt1168lv) Units=km Length=0.0760751 bus1=rdt1168lv.1.2 bus2=p1rlv1977.1.2 switch=n enabled=y phases=2 Linecode=1P_OH_AL_4/0_Zuzara_2

New Line.l(r:p1rlv1978-rdt1168lv) Units=km Length=0.0871004 bus1=rdt1168lv.1.2 bus2=p1rlv1978.1.2 switch=n enabled=y phases=2 Linecode=1P_OH_AL_4/0_Zuzara_2

New Line.l(r:p1rlv1971-rdt1169lv) Units=km Length=0.120968 bus1=rdt1169lv.1.2 bus2=p1rlv1971.1.2 switch=n enabled=y phases=2 Linecode=1P_OH_AL_4/0_Zuzara_2

New Line.l(r:p1rlv1972-rdm1978) Units=km Length=0.08975460000000002 bus1=rdm1978.1.2 bus2=p1rlv1972.1.2 switch=n enabled=y phases=2 Linecode=1P_OH_AL_4/0_Zuzara_2

New Line.l(r:p1rlv1973-rdm1978) Units=km Length=0.113448 bus1=rdm1978.1.2 bus2=p1rlv1973.1.2 switch=n enabled=y phases=2 Linecode=1P_OH_AL_4/0_Zuzara_2

New Line.l(r:rdm1978-rdt1169lv) Units=km Length=0.0188668 bus1=rdt1169lv.1.2 bus2=rdm1978.1.2 switch=n enabled=y phases=2 Linecode=1P_OH_AL_2/0_Rucina_2

New Line.l(r:p1rlv1974-rdm1980) Units=km Length=0.0620553 bus1=rdm1980.1.2 bus2=p1rlv1974.1.2 switch=n enabled=y phases=2 Linecode=1P_OH_AL_4/0_Zuzara_2

New Line.l(r:rdm1980-rdt1169lv) Units=km Length=0.018857 bus1=rdt1169lv.1.2 bus2=rdm1980.1.2 switch=n enabled=y phases=2 Linecode=1P_OH_AL_2/0_Rucina_2

New Line.l(r:p1rlv1975-rdt1170lv) Units=km Length=0.001 bus1=rdt1170lv.1.2 bus2=p1rlv1975.1.2 switch=n enabled=y phases=2 Linecode=1P_OH_AL_4_Periwinkle_2

New Line.l(r:p1rlv1979-rdt1171lv) Units=km Length=0.030149700000000005 bus1=rdt1171lv.1.2 bus2=p1rlv1979.1.2 switch=n enabled=y phases=2 Linecode=1P_OH_AL_4/0_Zuzara_2

New Line.l(r:p1rlv1980-rdt1171lv) Units=km Length=0.030149700000000005 bus1=rdt1171lv.1.2 bus2=p1rlv1980.1.2 switch=n enabled=y phases=2 Linecode=1P_OH_AL_4/0_Zuzara_2

New Line.l(r:p1rlv1981-rdt1172lv) Units=km Length=0.08750370000000002 bus1=rdt1172lv.1.2 bus2=p1rlv1981.1.2 switch=n enabled=y phases=2 Linecode=1P_OH_AL_4/0_Zuzara_2

New Line.l(r:p1rlv1982-rdt1173lv) Units=km Length=0.0843964 bus1=rdt1173lv.1.2 bus2=p1rlv1982.1.2 switch=n enabled=y phases=2 Linecode=1P_OH_AL_4/0_Zuzara_2

New Line.l(r:p1rlv1984-rdt1173lv) Units=km Length=0.0131792 bus1=rdt1173lv.1.2 bus2=p1rlv1984.1.2 switch=n enabled=y phases=2 Linecode=1P_OH_AL_2/0_Rucina_2

New Line.l(r:p1rlv1983-rdt1174lv) Units=km Length=0.0324891 bus1=rdt1174lv.1.2 bus2=p1rlv1983.1.2 switch=n enabled=y phases=2 Linecode=1P_OH_AL_4/0_Zuzara_2

New Line.l(r:p1rlv1985-rdt1175lv) Units=km Length=0.00920396 bus1=rdt1175lv.1.2 bus2=p1rlv1985.1.2 switch=n enabled=y phases=2 Linecode=1P_OH_AL_2/0_Rucina_2

New Line.l(r:p1rlv1986-rdt1176lv) Units=km Length=0.0448608 bus1=rdt1176lv.1.2 bus2=p1rlv1986.1.2 switch=n enabled=y phases=2 Linecode=1P_OH_AL_4/0_Zuzara_2

New Line.l(r:p1rlv1987-rdt1176lv) Units=km Length=0.11901 bus1=rdt1176lv.1.2 bus2=p1rlv1987.1.2 switch=n enabled=y phases=2 Linecode=1P_OH_AL_4/0_Zuzara_2

New Line.l(r:p1rlv1988-rdt1177lv) Units=km Length=0.001 bus1=rdt1177lv.1.2 bus2=p1rlv1988.1.2 switch=n enabled=y phases=2 Linecode=1P_OH_AL_4_Periwinkle_2

New Line.l(r:p1rlv1989-rdt1178lv) Units=km Length=0.0942113 bus1=rdt1178lv.1.2 bus2=p1rlv1989.1.2 switch=n enabled=y phases=2 Linecode=1P_OH_AL_4/0_Zuzara_2

New Line.l(r:p1rlv1990-rdm1993) Units=km Length=0.0632054 bus1=rdm1993.1.2 bus2=p1rlv1990.1.2 switch=n enabled=y phases=2 Linecode=1P_OH_AL_4/0_Zuzara_2

New Line.l(r:rdm1993-rdt1179lv) Units=km Length=0.013892800000000002 bus1=rdt1179lv.1.2 bus2=rdm1993.1.2 switch=n enabled=y phases=2 Linecode=1P_OH_AL_2/0_Rucina_2

New Line.l(r:p1rlv1991-rdm1994) Units=km Length=0.10253000000000001 bus1=rdm1994.1.2 bus2=p1rlv1991.1.2 switch=n enabled=y phases=2 Linecode=1P_OH_AL_4/0_Zuzara_2

New Line.l(r:rdm1994-rdt1179lv) Units=km Length=0.0138936 bus1=rdt1179lv.1.2 bus2=rdm1994.1.2 switch=n enabled=y phases=2 Linecode=1P_OH_AL_2/0_Rucina_2

New Line.l(r:p1rlv1992-rdt1180lv) Units=km Length=0.001 bus1=rdt1180lv.1.2 bus2=p1rlv1992.1.2 switch=n enabled=y phases=2 Linecode=1P_OH_AL_4_Periwinkle_2

New Line.l(r:p1rlv1993-rdt1181lv) Units=km Length=0.0922533 bus1=rdt1181lv.1.2 bus2=p1rlv1993.1.2 switch=n enabled=y phases=2 Linecode=1P_OH_AL_4/0_Zuzara_2

New Line.l(r:p1rlv1994-rdt1182lv) Units=km Length=0.0433006 bus1=rdt1182lv.1.2 bus2=p1rlv1994.1.2 switch=n enabled=y phases=2 Linecode=1P_OH_AL_4/0_Zuzara_2

New Line.l(r:p1rlv1995-rdt1183lv) Units=km Length=0.0519836 bus1=rdt1183lv.1.2 bus2=p1rlv1995.1.2 switch=n enabled=y phases=2 Linecode=1P_OH_AL_4/0_Zuzara_2

New Line.l(r:p1rlv1997-rdt1184lv) Units=km Length=0.077777 bus1=rdt1184lv.1.2 bus2=p1rlv1997.1.2 switch=n enabled=y phases=2 Linecode=1P_OH_AL_4/0_Zuzara_2

New Line.l(r:p1rlv1996-rdm1999) Units=km Length=0.0706744 bus1=rdm1999.1.2 bus2=p1rlv1996.1.2 switch=n enabled=y phases=2 Linecode=1P_OH_AL_4/0_Zuzara_2

New Line.l(r:rdm1999-rdt1184lv) Units=km Length=0.0187926 bus1=rdt1184lv.1.2 bus2=rdm1999.1.2 switch=n enabled=y phases=2 Linecode=1P_OH_AL_2/0_Rucina_2

New Line.l(r:p1rlv1998-rdm2001) Units=km Length=0.0405927 bus1=rdm2001.1.2 bus2=p1rlv1998.1.2 switch=n enabled=y phases=2 Linecode=1P_OH_AL_4/0_Zuzara_2

New Line.l(r:rdm2001-rdt1184lv) Units=km Length=0.0187839 bus1=rdt1184lv.1.2 bus2=rdm2001.1.2 switch=n enabled=y phases=2 Linecode=1P_OH_AL_2/0_Rucina_2

New Line.l(r:p1rlv1999-rdt1185lv) Units=km Length=0.0626692 bus1=rdt1185lv.1.2 bus2=p1rlv1999.1.2 switch=n enabled=y phases=2 Linecode=1P_OH_AL_4/0_Zuzara_2

New Line.l(r:p1rlv2000-rdt1186lv) Units=km Length=0.0280018 bus1=rdt1186lv.1.2 bus2=p1rlv2000.1.2 switch=n enabled=y phases=2 Linecode=1P_OH_AL_4/0_Zuzara_2

New Line.l(r:p1rlv2001-rdt1187lv) Units=km Length=0.001 bus1=rdt1187lv.1.2 bus2=p1rlv2001.1.2 switch=n enabled=y phases=2 Linecode=1P_OH_AL_4_Periwinkle_2

New Line.l(r:p1rlv2002-rdt1188lv) Units=km Length=0.0342084 bus1=rdt1188lv.1.2 bus2=p1rlv2002.1.2 switch=n enabled=y phases=2 Linecode=1P_OH_AL_4/0_Zuzara_2

New Line.l(r:p1rlv2003-rdt1189lv) Units=km Length=0.0393511 bus1=rdt1189lv.1.2 bus2=p1rlv2003.1.2 switch=n enabled=y phases=2 Linecode=1P_OH_AL_4/0_Zuzara_2

New Line.l(r:p1rlv2004-rdt1189lv) Units=km Length=0.0151414 bus1=rdt1189lv.1.2 bus2=p1rlv2004.1.2 switch=n enabled=y phases=2 Linecode=1P_OH_AL_2/0_Rucina_2

New Line.l(r:p1rlv2005-rdt1189lv) Units=km Length=0.0381589 bus1=rdt1189lv.1.2 bus2=p1rlv2005.1.2 switch=n enabled=y phases=2 Linecode=1P_OH_AL_4/0_Zuzara_2

New Line.l(r:p1rlv2006-rdt1190lv) Units=km Length=0.0386953 bus1=rdt1190lv.1.2 bus2=p1rlv2006.1.2 switch=n enabled=y phases=2 Linecode=1P_OH_AL_4/0_Zuzara_2

New Line.l(r:p1rlv2007-rdt1190lv) Units=km Length=0.0494073 bus1=rdt1190lv.1.2 bus2=p1rlv2007.1.2 switch=n enabled=y phases=2 Linecode=1P_OH_AL_4/0_Zuzara_2

New Line.l(r:p1rlv2008-rdm2011) Units=km Length=0.05974440000000001 bus1=rdm2011.1.2 bus2=p1rlv2008.1.2 switch=n enabled=y phases=2 Linecode=1P_OH_AL_4/0_Zuzara_2

New Line.l(r:rdm2011-rdt1190lv) Units=km Length=0.0179543 bus1=rdt1190lv.1.2 bus2=rdm2011.1.2 switch=n enabled=y phases=2 Linecode=1P_OH_AL_2/0_Rucina_2

New Line.l(r:p1rlv2009-rdt1191lv) Units=km Length=0.041132100000000005 bus1=rdt1191lv.1.2 bus2=p1rlv2009.1.2 switch=n enabled=y phases=2 Linecode=1P_OH_AL_4/0_Zuzara_2

New Line.l(r:p1rlv2010-rdt1192lv) Units=km Length=0.0369406 bus1=rdt1192lv.1.2 bus2=p1rlv2010.1.2 switch=n enabled=y phases=2 Linecode=1P_OH_AL_4/0_Zuzara_2

New Line.l(r:p1rlv2011-rdt1193lv) Units=km Length=0.0331988 bus1=rdt1193lv.1.2 bus2=p1rlv2011.1.2 switch=n enabled=y phases=2 Linecode=1P_OH_AL_4/0_Zuzara_2

New Line.l(r:p1rlv2012-rdt1194lv) Units=km Length=0.05019110000000001 bus1=rdt1194lv.1.2 bus2=p1rlv2012.1.2 switch=n enabled=y phases=2 Linecode=1P_OH_AL_4/0_Zuzara_2

New Line.l(r:p1rlv2013-rdm2016) Units=km Length=0.08240420000000001 bus1=rdm2016.1.2 bus2=p1rlv2013.1.2 switch=n enabled=y phases=2 Linecode=1P_OH_AL_4/0_Zuzara_2

New Line.l(r:rdm2016-rdt1195lv) Units=km Length=0.036151 bus1=rdt1195lv.1.2 bus2=rdm2016.1.2 switch=n enabled=y phases=2 Linecode=1P_OH_AL_4/0_Zuzara_2

New Line.l(r:p1rlv2014-rdm2017) Units=km Length=0.0670775 bus1=rdm2017.1.2 bus2=p1rlv2014.1.2 switch=n enabled=y phases=2 Linecode=1P_OH_AL_4/0_Zuzara_2
