New Loadshape.GSO_36.1751_-79.7183_45_225 npts= 35040 interval=0.25 mult = (file =C:\Users\13136\SMARTDS-2-PyDSS-Visualizer/profiles/GSO_36.1751_-79.7183_45_225.csv)

New Loadshape.GSO_36.2120_-79.7183_35_135 npts= 35040 interval=0.25 mult = (file =C:\Users\13136\SMARTDS-2-PyDSS-Visualizer/profiles/GSO_36.2120_-79.7183_35_135.csv)

New Loadshape.GSO_36.1751_-79.7183_15_225 npts= 35040 interval=0.25 mult = (file =C:\Users\13136\SMARTDS-2-PyDSS-Visualizer/profiles/GSO_36.1751_-79.7183_15_225.csv)

New Loadshape.GSO_36.2489_-79.7183_25_180 npts= 35040 interval=0.25 mult = (file =C:\Users\13136\SMARTDS-2-PyDSS-Visualizer/profiles/GSO_36.2489_-79.7183_25_180.csv)

New Loadshape.GSO_36.1751_-79.7183_35_270 npts= 35040 interval=0.25 mult = (file =C:\Users\13136\SMARTDS-2-PyDSS-Visualizer/profiles/GSO_36.1751_-79.7183_35_270.csv)

New Loadshape.GSO_36.2120_-79.7183_15_225 npts= 35040 interval=0.25 mult = (file =C:\Users\13136\SMARTDS-2-PyDSS-Visualizer/profiles/GSO_36.2120_-79.7183_15_225.csv)

New Loadshape.GSO_36.1751_-79.7183_45_135 npts= 35040 interval=0.25 mult = (file =C:\Users\13136\SMARTDS-2-PyDSS-Visualizer/profiles/GSO_36.1751_-79.7183_45_135.csv)

New Loadshape.GSO_36.2120_-79.7183_35_90 npts= 35040 interval=0.25 mult = (file =C:\Users\13136\SMARTDS-2-PyDSS-Visualizer/profiles/GSO_36.2120_-79.7183_35_90.csv)

New Loadshape.GSO_36.2120_-79.7183_35_180 npts= 35040 interval=0.25 mult = (file =C:\Users\13136\SMARTDS-2-PyDSS-Visualizer/profiles/GSO_36.2120_-79.7183_35_180.csv)

New Loadshape.GSO_36.2120_-79.7183_45_270 npts= 35040 interval=0.25 mult = (file =C:\Users\13136\SMARTDS-2-PyDSS-Visualizer/profiles/GSO_36.2120_-79.7183_45_270.csv)

New Loadshape.GSO_36.2120_-79.7183_25_90 npts= 35040 interval=0.25 mult = (file =C:\Users\13136\SMARTDS-2-PyDSS-Visualizer/profiles/GSO_36.2120_-79.7183_25_90.csv)

New Loadshape.GSO_36.2120_-79.7183_25_180 npts= 35040 interval=0.25 mult = (file =C:\Users\13136\SMARTDS-2-PyDSS-Visualizer/profiles/GSO_36.2120_-79.7183_25_180.csv)

New Loadshape.GSO_36.1751_-79.7183_15_135 npts= 35040 interval=0.25 mult = (file =C:\Users\13136\SMARTDS-2-PyDSS-Visualizer/profiles/GSO_36.1751_-79.7183_15_135.csv)

New Loadshape.GSO_36.1751_-79.7183_25_90 npts= 35040 interval=0.25 mult = (file =C:\Users\13136\SMARTDS-2-PyDSS-Visualizer/profiles/GSO_36.1751_-79.7183_25_90.csv)

New Loadshape.GSO_36.1751_-79.7183_35_90 npts= 35040 interval=0.25 mult = (file =C:\Users\13136\SMARTDS-2-PyDSS-Visualizer/profiles/GSO_36.1751_-79.7183_35_90.csv)

New Loadshape.GSO_36.2120_-79.7183_45_180 npts= 35040 interval=0.25 mult = (file =C:\Users\13136\SMARTDS-2-PyDSS-Visualizer/profiles/GSO_36.2120_-79.7183_45_180.csv)

New Loadshape.GSO_36.2120_-79.7183_25_270 npts= 35040 interval=0.25 mult = (file =C:\Users\13136\SMARTDS-2-PyDSS-Visualizer/profiles/GSO_36.2120_-79.7183_25_270.csv)

New Loadshape.GSO_36.2489_-79.7183_35_180 npts= 35040 interval=0.25 mult = (file =C:\Users\13136\SMARTDS-2-PyDSS-Visualizer/profiles/GSO_36.2489_-79.7183_35_180.csv)

New Loadshape.GSO_36.1751_-79.7183_15_180 npts= 35040 interval=0.25 mult = (file =C:\Users\13136\SMARTDS-2-PyDSS-Visualizer/profiles/GSO_36.1751_-79.7183_15_180.csv)

New Loadshape.GSO_36.1751_-79.7183_45_270 npts= 35040 interval=0.25 mult = (file =C:\Users\13136\SMARTDS-2-PyDSS-Visualizer/profiles/GSO_36.1751_-79.7183_45_270.csv)

New Loadshape.GSO_36.2120_-79.7183_15_135 npts= 35040 interval=0.25 mult = (file =C:\Users\13136\SMARTDS-2-PyDSS-Visualizer/profiles/GSO_36.2120_-79.7183_15_135.csv)

New Loadshape.GSO_36.1751_-79.7183_35_180 npts= 35040 interval=0.25 mult = (file =C:\Users\13136\SMARTDS-2-PyDSS-Visualizer/profiles/GSO_36.1751_-79.7183_35_180.csv)

New Loadshape.GSO_36.1751_-79.7183_45_180 npts= 35040 interval=0.25 mult = (file =C:\Users\13136\SMARTDS-2-PyDSS-Visualizer/profiles/GSO_36.1751_-79.7183_45_180.csv)

New Loadshape.GSO_36.2120_-79.7183_45_135 npts= 35040 interval=0.25 mult = (file =C:\Users\13136\SMARTDS-2-PyDSS-Visualizer/profiles/GSO_36.2120_-79.7183_45_135.csv)

New Loadshape.GSO_36.2120_-79.7183_15_270 npts= 35040 interval=0.25 mult = (file =C:\Users\13136\SMARTDS-2-PyDSS-Visualizer/profiles/GSO_36.2120_-79.7183_15_270.csv)

New Loadshape.GSO_36.1751_-79.7183_35_135 npts= 35040 interval=0.25 mult = (file =C:\Users\13136\SMARTDS-2-PyDSS-Visualizer/profiles/GSO_36.1751_-79.7183_35_135.csv)

New Loadshape.GSO_36.2120_-79.7183_25_135 npts= 35040 interval=0.25 mult = (file =C:\Users\13136\SMARTDS-2-PyDSS-Visualizer/profiles/GSO_36.2120_-79.7183_25_135.csv)

New Loadshape.GSO_36.2120_-79.7183_15_90 npts= 35040 interval=0.25 mult = (file =C:\Users\13136\SMARTDS-2-PyDSS-Visualizer/profiles/GSO_36.2120_-79.7183_15_90.csv)

New Loadshape.GSO_36.1751_-79.7183_15_270 npts= 35040 interval=0.25 mult = (file =C:\Users\13136\SMARTDS-2-PyDSS-Visualizer/profiles/GSO_36.1751_-79.7183_15_270.csv)

New Loadshape.GSO_36.2120_-79.7183_25_225 npts= 35040 interval=0.25 mult = (file =C:\Users\13136\SMARTDS-2-PyDSS-Visualizer/profiles/GSO_36.2120_-79.7183_25_225.csv)

New Loadshape.GSO_36.2120_-79.7183_35_225 npts= 35040 interval=0.25 mult = (file =C:\Users\13136\SMARTDS-2-PyDSS-Visualizer/profiles/GSO_36.2120_-79.7183_35_225.csv)

New Loadshape.GSO_36.2120_-79.7183_45_90 npts= 35040 interval=0.25 mult = (file =C:\Users\13136\SMARTDS-2-PyDSS-Visualizer/profiles/GSO_36.2120_-79.7183_45_90.csv)

New Loadshape.GSO_36.2489_-79.7183_15_180 npts= 35040 interval=0.25 mult = (file =C:\Users\13136\SMARTDS-2-PyDSS-Visualizer/profiles/GSO_36.2489_-79.7183_15_180.csv)

New Loadshape.GSO_36.2120_-79.7183_35_270 npts= 35040 interval=0.25 mult = (file =C:\Users\13136\SMARTDS-2-PyDSS-Visualizer/profiles/GSO_36.2120_-79.7183_35_270.csv)

New Loadshape.GSO_36.2120_-79.7183_15_180 npts= 35040 interval=0.25 mult = (file =C:\Users\13136\SMARTDS-2-PyDSS-Visualizer/profiles/GSO_36.2120_-79.7183_15_180.csv)

New Loadshape.GSO_36.1751_-79.7183_25_270 npts= 35040 interval=0.25 mult = (file =C:\Users\13136\SMARTDS-2-PyDSS-Visualizer/profiles/GSO_36.1751_-79.7183_25_270.csv)

New Loadshape.GSO_36.2120_-79.7183_45_225 npts= 35040 interval=0.25 mult = (file =C:\Users\13136\SMARTDS-2-PyDSS-Visualizer/profiles/GSO_36.2120_-79.7183_45_225.csv)

New Loadshape.GSO_36.2489_-79.7183_25_135 npts= 35040 interval=0.25 mult = (file =C:\Users\13136\SMARTDS-2-PyDSS-Visualizer/profiles/GSO_36.2489_-79.7183_25_135.csv)

New Loadshape.GSO_36.1751_-79.7183_25_180 npts= 35040 interval=0.25 mult = (file =C:\Users\13136\SMARTDS-2-PyDSS-Visualizer/profiles/GSO_36.1751_-79.7183_25_180.csv)

New Loadshape.GSO_36.1751_-79.7183_35_225 npts= 35040 interval=0.25 mult = (file =C:\Users\13136\SMARTDS-2-PyDSS-Visualizer/profiles/GSO_36.1751_-79.7183_35_225.csv)

New Loadshape.GSO_36.1751_-79.7183_15_90 npts= 35040 interval=0.25 mult = (file =C:\Users\13136\SMARTDS-2-PyDSS-Visualizer/profiles/GSO_36.1751_-79.7183_15_90.csv)

New Loadshape.GSO_36.2489_-79.7183_45_225 npts= 35040 interval=0.25 mult = (file =C:\Users\13136\SMARTDS-2-PyDSS-Visualizer/profiles/GSO_36.2489_-79.7183_45_225.csv)

New Loadshape.GSO_36.1751_-79.7183_45_90 npts= 35040 interval=0.25 mult = (file =C:\Users\13136\SMARTDS-2-PyDSS-Visualizer/profiles/GSO_36.1751_-79.7183_45_90.csv)

New Loadshape.GSO_36.1751_-79.7183_25_225 npts= 35040 interval=0.25 mult = (file =C:\Users\13136\SMARTDS-2-PyDSS-Visualizer/profiles/GSO_36.1751_-79.7183_25_225.csv)

New Loadshape.GSO_36.2489_-79.7183_25_270 npts= 35040 interval=0.25 mult = (file =C:\Users\13136\SMARTDS-2-PyDSS-Visualizer/profiles/GSO_36.2489_-79.7183_25_270.csv)

New Loadshape.GSO_36.1751_-79.7183_25_135 npts= 35040 interval=0.25 mult = (file =C:\Users\13136\SMARTDS-2-PyDSS-Visualizer/profiles/GSO_36.1751_-79.7183_25_135.csv)

New Loadshape.GSO_36.2489_-79.7183_35_90 npts= 35040 interval=0.25 mult = (file =C:\Users\13136\SMARTDS-2-PyDSS-Visualizer/profiles/GSO_36.2489_-79.7183_35_90.csv)

New Loadshape.GSO_36.2489_-79.7183_35_135 npts= 35040 interval=0.25 mult = (file =C:\Users\13136\SMARTDS-2-PyDSS-Visualizer/profiles/GSO_36.2489_-79.7183_35_135.csv)

New Loadshape.GSO_36.2489_-79.7183_25_90 npts= 35040 interval=0.25 mult = (file =C:\Users\13136\SMARTDS-2-PyDSS-Visualizer/profiles/GSO_36.2489_-79.7183_25_90.csv)

New Loadshape.GSO_36.2489_-79.7183_15_135 npts= 35040 interval=0.25 mult = (file =C:\Users\13136\SMARTDS-2-PyDSS-Visualizer/profiles/GSO_36.2489_-79.7183_15_135.csv)

New Loadshape.GSO_36.2489_-79.7183_45_135 npts= 35040 interval=0.25 mult = (file =C:\Users\13136\SMARTDS-2-PyDSS-Visualizer/profiles/GSO_36.2489_-79.7183_45_135.csv)

New Loadshape.GSO_36.2489_-79.7183_15_90 npts= 35040 interval=0.25 mult = (file =C:\Users\13136\SMARTDS-2-PyDSS-Visualizer/profiles/GSO_36.2489_-79.7183_15_90.csv)

New Loadshape.GSO_36.2489_-79.7183_45_270 npts= 35040 interval=0.25 mult = (file =C:\Users\13136\SMARTDS-2-PyDSS-Visualizer/profiles/GSO_36.2489_-79.7183_45_270.csv)

New Loadshape.GSO_36.2489_-79.7183_15_270 npts= 35040 interval=0.25 mult = (file =C:\Users\13136\SMARTDS-2-PyDSS-Visualizer/profiles/GSO_36.2489_-79.7183_15_270.csv)

New Loadshape.GSO_36.1751_-79.7183_55_180 npts= 35040 interval=0.25 mult = (file =C:\Users\13136\SMARTDS-2-PyDSS-Visualizer/profiles/GSO_36.1751_-79.7183_55_180.csv)

New Loadshape.res_kw_278_pu npts= 35040 interval=0.25 mult = (file =C:\Users\13136\SMARTDS-2-PyDSS-Visualizer/profiles/res_kw_278_pu.csv) qmult = (file =C:\Users\13136\SMARTDS-2-PyDSS-Visualizer/profiles/res_kvar_278_pu.csv)

New Loadshape.res_kw_1246_pu npts= 35040 interval=0.25 mult = (file =C:\Users\13136\SMARTDS-2-PyDSS-Visualizer/profiles/res_kw_1246_pu.csv) qmult = (file =C:\Users\13136\SMARTDS-2-PyDSS-Visualizer/profiles/res_kvar_1246_pu.csv)

New Loadshape.res_kw_324_pu npts= 35040 interval=0.25 mult = (file =C:\Users\13136\SMARTDS-2-PyDSS-Visualizer/profiles/res_kw_324_pu.csv) qmult = (file =C:\Users\13136\SMARTDS-2-PyDSS-Visualizer/profiles/res_kvar_324_pu.csv)

New Loadshape.res_kw_1205_pu npts= 35040 interval=0.25 mult = (file =C:\Users\13136\SMARTDS-2-PyDSS-Visualizer/profiles/res_kw_1205_pu.csv) qmult = (file =C:\Users\13136\SMARTDS-2-PyDSS-Visualizer/profiles/res_kvar_1205_pu.csv)

New Loadshape.res_kw_454_pu npts= 35040 interval=0.25 mult = (file =C:\Users\13136\SMARTDS-2-PyDSS-Visualizer/profiles/res_kw_454_pu.csv) qmult = (file =C:\Users\13136\SMARTDS-2-PyDSS-Visualizer/profiles/res_kvar_454_pu.csv)

New Loadshape.res_kw_664_pu npts= 35040 interval=0.25 mult = (file =C:\Users\13136\SMARTDS-2-PyDSS-Visualizer/profiles/res_kw_664_pu.csv) qmult = (file =C:\Users\13136\SMARTDS-2-PyDSS-Visualizer/profiles/res_kvar_664_pu.csv)

New Loadshape.res_kw_35_pu npts= 35040 interval=0.25 mult = (file =C:\Users\13136\SMARTDS-2-PyDSS-Visualizer/profiles/res_kw_35_pu.csv) qmult = (file =C:\Users\13136\SMARTDS-2-PyDSS-Visualizer/profiles/res_kvar_35_pu.csv)

New Loadshape.res_kw_843_pu npts= 35040 interval=0.25 mult = (file =C:\Users\13136\SMARTDS-2-PyDSS-Visualizer/profiles/res_kw_843_pu.csv) qmult = (file =C:\Users\13136\SMARTDS-2-PyDSS-Visualizer/profiles/res_kvar_843_pu.csv)

New Loadshape.res_kw_462_pu npts= 35040 interval=0.25 mult = (file =C:\Users\13136\SMARTDS-2-PyDSS-Visualizer/profiles/res_kw_462_pu.csv) qmult = (file =C:\Users\13136\SMARTDS-2-PyDSS-Visualizer/profiles/res_kvar_462_pu.csv)

New Loadshape.res_kw_4_pu npts= 35040 interval=0.25 mult = (file =C:\Users\13136\SMARTDS-2-PyDSS-Visualizer/profiles/res_kw_4_pu.csv) qmult = (file =C:\Users\13136\SMARTDS-2-PyDSS-Visualizer/profiles/res_kvar_4_pu.csv)

New Loadshape.res_kw_517_pu npts= 35040 interval=0.25 mult = (file =C:\Users\13136\SMARTDS-2-PyDSS-Visualizer/profiles/res_kw_517_pu.csv) qmult = (file =C:\Users\13136\SMARTDS-2-PyDSS-Visualizer/profiles/res_kvar_517_pu.csv)

New Loadshape.res_kw_670_pu npts= 35040 interval=0.25 mult = (file =C:\Users\13136\SMARTDS-2-PyDSS-Visualizer/profiles/res_kw_670_pu.csv) qmult = (file =C:\Users\13136\SMARTDS-2-PyDSS-Visualizer/profiles/res_kvar_670_pu.csv)

New Loadshape.res_kw_917_pu npts= 35040 interval=0.25 mult = (file =C:\Users\13136\SMARTDS-2-PyDSS-Visualizer/profiles/res_kw_917_pu.csv) qmult = (file =C:\Users\13136\SMARTDS-2-PyDSS-Visualizer/profiles/res_kvar_917_pu.csv)

New Loadshape.res_kw_452_pu npts= 35040 interval=0.25 mult = (file =C:\Users\13136\SMARTDS-2-PyDSS-Visualizer/profiles/res_kw_452_pu.csv) qmult = (file =C:\Users\13136\SMARTDS-2-PyDSS-Visualizer/profiles/res_kvar_452_pu.csv)

New Loadshape.res_kw_624_pu npts= 35040 interval=0.25 mult = (file =C:\Users\13136\SMARTDS-2-PyDSS-Visualizer/profiles/res_kw_624_pu.csv) qmult = (file =C:\Users\13136\SMARTDS-2-PyDSS-Visualizer/profiles/res_kvar_624_pu.csv)

New Loadshape.res_kw_33_pu npts= 35040 interval=0.25 mult = (file =C:\Users\13136\SMARTDS-2-PyDSS-Visualizer/profiles/res_kw_33_pu.csv) qmult = (file =C:\Users\13136\SMARTDS-2-PyDSS-Visualizer/profiles/res_kvar_33_pu.csv)

New Loadshape.res_kw_319_pu npts= 35040 interval=0.25 mult = (file =C:\Users\13136\SMARTDS-2-PyDSS-Visualizer/profiles/res_kw_319_pu.csv) qmult = (file =C:\Users\13136\SMARTDS-2-PyDSS-Visualizer/profiles/res_kvar_319_pu.csv)

New Loadshape.res_kw_93_pu npts= 35040 interval=0.25 mult = (file =C:\Users\13136\SMARTDS-2-PyDSS-Visualizer/profiles/res_kw_93_pu.csv) qmult = (file =C:\Users\13136\SMARTDS-2-PyDSS-Visualizer/profiles/res_kvar_93_pu.csv)

New Loadshape.res_kw_933_pu npts= 35040 interval=0.25 mult = (file =C:\Users\13136\SMARTDS-2-PyDSS-Visualizer/profiles/res_kw_933_pu.csv) qmult = (file =C:\Users\13136\SMARTDS-2-PyDSS-Visualizer/profiles/res_kvar_933_pu.csv)

New Loadshape.res_kw_203_pu npts= 35040 interval=0.25 mult = (file =C:\Users\13136\SMARTDS-2-PyDSS-Visualizer/profiles/res_kw_203_pu.csv) qmult = (file =C:\Users\13136\SMARTDS-2-PyDSS-Visualizer/profiles/res_kvar_203_pu.csv)

New Loadshape.res_kw_732_pu npts= 35040 interval=0.25 mult = (file =C:\Users\13136\SMARTDS-2-PyDSS-Visualizer/profiles/res_kw_732_pu.csv) qmult = (file =C:\Users\13136\SMARTDS-2-PyDSS-Visualizer/profiles/res_kvar_732_pu.csv)

New Loadshape.res_kw_267_pu npts= 35040 interval=0.25 mult = (file =C:\Users\13136\SMARTDS-2-PyDSS-Visualizer/profiles/res_kw_267_pu.csv) qmult = (file =C:\Users\13136\SMARTDS-2-PyDSS-Visualizer/profiles/res_kvar_267_pu.csv)

New Loadshape.res_kw_263_pu npts= 35040 interval=0.25 mult = (file =C:\Users\13136\SMARTDS-2-PyDSS-Visualizer/profiles/res_kw_263_pu.csv) qmult = (file =C:\Users\13136\SMARTDS-2-PyDSS-Visualizer/profiles/res_kvar_263_pu.csv)

New Loadshape.res_kw_752_pu npts= 35040 interval=0.25 mult = (file =C:\Users\13136\SMARTDS-2-PyDSS-Visualizer/profiles/res_kw_752_pu.csv) qmult = (file =C:\Users\13136\SMARTDS-2-PyDSS-Visualizer/profiles/res_kvar_752_pu.csv)

New Loadshape.res_kw_549_pu npts= 35040 interval=0.25 mult = (file =C:\Users\13136\SMARTDS-2-PyDSS-Visualizer/profiles/res_kw_549_pu.csv) qmult = (file =C:\Users\13136\SMARTDS-2-PyDSS-Visualizer/profiles/res_kvar_549_pu.csv)

New Loadshape.res_kw_1267_pu npts= 35040 interval=0.25 mult = (file =C:\Users\13136\SMARTDS-2-PyDSS-Visualizer/profiles/res_kw_1267_pu.csv) qmult = (file =C:\Users\13136\SMARTDS-2-PyDSS-Visualizer/profiles/res_kvar_1267_pu.csv)

New Loadshape.res_kw_985_pu npts= 35040 interval=0.25 mult = (file =C:\Users\13136\SMARTDS-2-PyDSS-Visualizer/profiles/res_kw_985_pu.csv) qmult = (file =C:\Users\13136\SMARTDS-2-PyDSS-Visualizer/profiles/res_kvar_985_pu.csv)

New Loadshape.res_kw_1037_pu npts= 35040 interval=0.25 mult = (file =C:\Users\13136\SMARTDS-2-PyDSS-Visualizer/profiles/res_kw_1037_pu.csv) qmult = (file =C:\Users\13136\SMARTDS-2-PyDSS-Visualizer/profiles/res_kvar_1037_pu.csv)

New Loadshape.res_kw_250_pu npts= 35040 interval=0.25 mult = (file =C:\Users\13136\SMARTDS-2-PyDSS-Visualizer/profiles/res_kw_250_pu.csv) qmult = (file =C:\Users\13136\SMARTDS-2-PyDSS-Visualizer/profiles/res_kvar_250_pu.csv)

New Loadshape.res_kw_1157_pu npts= 35040 interval=0.25 mult = (file =C:\Users\13136\SMARTDS-2-PyDSS-Visualizer/profiles/res_kw_1157_pu.csv) qmult = (file =C:\Users\13136\SMARTDS-2-PyDSS-Visualizer/profiles/res_kvar_1157_pu.csv)

New Loadshape.res_kw_1070_pu npts= 35040 interval=0.25 mult = (file =C:\Users\13136\SMARTDS-2-PyDSS-Visualizer/profiles/res_kw_1070_pu.csv) qmult = (file =C:\Users\13136\SMARTDS-2-PyDSS-Visualizer/profiles/res_kvar_1070_pu.csv)

New Loadshape.res_kw_929_pu npts= 35040 interval=0.25 mult = (file =C:\Users\13136\SMARTDS-2-PyDSS-Visualizer/profiles/res_kw_929_pu.csv) qmult = (file =C:\Users\13136\SMARTDS-2-PyDSS-Visualizer/profiles/res_kvar_929_pu.csv)

New Loadshape.res_kw_134_pu npts= 35040 interval=0.25 mult = (file =C:\Users\13136\SMARTDS-2-PyDSS-Visualizer/profiles/res_kw_134_pu.csv) qmult = (file =C:\Users\13136\SMARTDS-2-PyDSS-Visualizer/profiles/res_kvar_134_pu.csv)

New Loadshape.res_kw_280_pu npts= 35040 interval=0.25 mult = (file =C:\Users\13136\SMARTDS-2-PyDSS-Visualizer/profiles/res_kw_280_pu.csv) qmult = (file =C:\Users\13136\SMARTDS-2-PyDSS-Visualizer/profiles/res_kvar_280_pu.csv)

New Loadshape.res_kw_825_pu npts= 35040 interval=0.25 mult = (file =C:\Users\13136\SMARTDS-2-PyDSS-Visualizer/profiles/res_kw_825_pu.csv) qmult = (file =C:\Users\13136\SMARTDS-2-PyDSS-Visualizer/profiles/res_kvar_825_pu.csv)

New Loadshape.res_kw_523_pu npts= 35040 interval=0.25 mult = (file =C:\Users\13136\SMARTDS-2-PyDSS-Visualizer/profiles/res_kw_523_pu.csv) qmult = (file =C:\Users\13136\SMARTDS-2-PyDSS-Visualizer/profiles/res_kvar_523_pu.csv)

New Loadshape.res_kw_1108_pu npts= 35040 interval=0.25 mult = (file =C:\Users\13136\SMARTDS-2-PyDSS-Visualizer/profiles/res_kw_1108_pu.csv) qmult = (file =C:\Users\13136\SMARTDS-2-PyDSS-Visualizer/profiles/res_kvar_1108_pu.csv)

New Loadshape.res_kw_595_pu npts= 35040 interval=0.25 mult = (file =C:\Users\13136\SMARTDS-2-PyDSS-Visualizer/profiles/res_kw_595_pu.csv) qmult = (file =C:\Users\13136\SMARTDS-2-PyDSS-Visualizer/profiles/res_kvar_595_pu.csv)

New Loadshape.res_kw_863_pu npts= 35040 interval=0.25 mult = (file =C:\Users\13136\SMARTDS-2-PyDSS-Visualizer/profiles/res_kw_863_pu.csv) qmult = (file =C:\Users\13136\SMARTDS-2-PyDSS-Visualizer/profiles/res_kvar_863_pu.csv)

New Loadshape.res_kw_1186_pu npts= 35040 interval=0.25 mult = (file =C:\Users\13136\SMARTDS-2-PyDSS-Visualizer/profiles/res_kw_1186_pu.csv) qmult = (file =C:\Users\13136\SMARTDS-2-PyDSS-Visualizer/profiles/res_kvar_1186_pu.csv)

New Loadshape.res_kw_597_pu npts= 35040 interval=0.25 mult = (file =C:\Users\13136\SMARTDS-2-PyDSS-Visualizer/profiles/res_kw_597_pu.csv) qmult = (file =C:\Users\13136\SMARTDS-2-PyDSS-Visualizer/profiles/res_kvar_597_pu.csv)

New Loadshape.res_kw_421_pu npts= 35040 interval=0.25 mult = (file =C:\Users\13136\SMARTDS-2-PyDSS-Visualizer/profiles/res_kw_421_pu.csv) qmult = (file =C:\Users\13136\SMARTDS-2-PyDSS-Visualizer/profiles/res_kvar_421_pu.csv)

New Loadshape.res_kw_409_pu npts= 35040 interval=0.25 mult = (file =C:\Users\13136\SMARTDS-2-PyDSS-Visualizer/profiles/res_kw_409_pu.csv) qmult = (file =C:\Users\13136\SMARTDS-2-PyDSS-Visualizer/profiles/res_kvar_409_pu.csv)

New Loadshape.res_kw_121_pu npts= 35040 interval=0.25 mult = (file =C:\Users\13136\SMARTDS-2-PyDSS-Visualizer/profiles/res_kw_121_pu.csv) qmult = (file =C:\Users\13136\SMARTDS-2-PyDSS-Visualizer/profiles/res_kvar_121_pu.csv)

New Loadshape.res_kw_621_pu npts= 35040 interval=0.25 mult = (file =C:\Users\13136\SMARTDS-2-PyDSS-Visualizer/profiles/res_kw_621_pu.csv) qmult = (file =C:\Users\13136\SMARTDS-2-PyDSS-Visualizer/profiles/res_kvar_621_pu.csv)

New Loadshape.res_kw_1193_pu npts= 35040 interval=0.25 mult = (file =C:\Users\13136\SMARTDS-2-PyDSS-Visualizer/profiles/res_kw_1193_pu.csv) qmult = (file =C:\Users\13136\SMARTDS-2-PyDSS-Visualizer/profiles/res_kvar_1193_pu.csv)

New Loadshape.res_kw_1042_pu npts= 35040 interval=0.25 mult = (file =C:\Users\13136\SMARTDS-2-PyDSS-Visualizer/profiles/res_kw_1042_pu.csv) qmult = (file =C:\Users\13136\SMARTDS-2-PyDSS-Visualizer/profiles/res_kvar_1042_pu.csv)

New Loadshape.res_kw_1094_pu npts= 35040 interval=0.25 mult = (file =C:\Users\13136\SMARTDS-2-PyDSS-Visualizer/profiles/res_kw_1094_pu.csv) qmult = (file =C:\Users\13136\SMARTDS-2-PyDSS-Visualizer/profiles/res_kvar_1094_pu.csv)

New Loadshape.res_kw_366_pu npts= 35040 interval=0.25 mult = (file =C:\Users\13136\SMARTDS-2-PyDSS-Visualizer/profiles/res_kw_366_pu.csv) qmult = (file =C:\Users\13136\SMARTDS-2-PyDSS-Visualizer/profiles/res_kvar_366_pu.csv)

New Loadshape.res_kw_282_pu npts= 35040 interval=0.25 mult = (file =C:\Users\13136\SMARTDS-2-PyDSS-Visualizer/profiles/res_kw_282_pu.csv) qmult = (file =C:\Users\13136\SMARTDS-2-PyDSS-Visualizer/profiles/res_kvar_282_pu.csv)

New Loadshape.res_kw_852_pu npts= 35040 interval=0.25 mult = (file =C:\Users\13136\SMARTDS-2-PyDSS-Visualizer/profiles/res_kw_852_pu.csv) qmult = (file =C:\Users\13136\SMARTDS-2-PyDSS-Visualizer/profiles/res_kvar_852_pu.csv)

New Loadshape.res_kw_532_pu npts= 35040 interval=0.25 mult = (file =C:\Users\13136\SMARTDS-2-PyDSS-Visualizer/profiles/res_kw_532_pu.csv) qmult = (file =C:\Users\13136\SMARTDS-2-PyDSS-Visualizer/profiles/res_kvar_532_pu.csv)

New Loadshape.res_kw_314_pu npts= 35040 interval=0.25 mult = (file =C:\Users\13136\SMARTDS-2-PyDSS-Visualizer/profiles/res_kw_314_pu.csv) qmult = (file =C:\Users\13136\SMARTDS-2-PyDSS-Visualizer/profiles/res_kvar_314_pu.csv)

New Loadshape.res_kw_611_pu npts= 35040 interval=0.25 mult = (file =C:\Users\13136\SMARTDS-2-PyDSS-Visualizer/profiles/res_kw_611_pu.csv) qmult = (file =C:\Users\13136\SMARTDS-2-PyDSS-Visualizer/profiles/res_kvar_611_pu.csv)

New Loadshape.res_kw_450_pu npts= 35040 interval=0.25 mult = (file =C:\Users\13136\SMARTDS-2-PyDSS-Visualizer/profiles/res_kw_450_pu.csv) qmult = (file =C:\Users\13136\SMARTDS-2-PyDSS-Visualizer/profiles/res_kvar_450_pu.csv)

New Loadshape.res_kw_340_pu npts= 35040 interval=0.25 mult = (file =C:\Users\13136\SMARTDS-2-PyDSS-Visualizer/profiles/res_kw_340_pu.csv) qmult = (file =C:\Users\13136\SMARTDS-2-PyDSS-Visualizer/profiles/res_kvar_340_pu.csv)

New Loadshape.res_kw_317_pu npts= 35040 interval=0.25 mult = (file =C:\Users\13136\SMARTDS-2-PyDSS-Visualizer/profiles/res_kw_317_pu.csv) qmult = (file =C:\Users\13136\SMARTDS-2-PyDSS-Visualizer/profiles/res_kvar_317_pu.csv)

New Loadshape.res_kw_689_pu npts= 35040 interval=0.25 mult = (file =C:\Users\13136\SMARTDS-2-PyDSS-Visualizer/profiles/res_kw_689_pu.csv) qmult = (file =C:\Users\13136\SMARTDS-2-PyDSS-Visualizer/profiles/res_kvar_689_pu.csv)

New Loadshape.res_kw_1258_pu npts= 35040 interval=0.25 mult = (file =C:\Users\13136\SMARTDS-2-PyDSS-Visualizer/profiles/res_kw_1258_pu.csv) qmult = (file =C:\Users\13136\SMARTDS-2-PyDSS-Visualizer/profiles/res_kvar_1258_pu.csv)

New Loadshape.res_kw_453_pu npts= 35040 interval=0.25 mult = (file =C:\Users\13136\SMARTDS-2-PyDSS-Visualizer/profiles/res_kw_453_pu.csv) qmult = (file =C:\Users\13136\SMARTDS-2-PyDSS-Visualizer/profiles/res_kvar_453_pu.csv)

New Loadshape.res_kw_46_pu npts= 35040 interval=0.25 mult = (file =C:\Users\13136\SMARTDS-2-PyDSS-Visualizer/profiles/res_kw_46_pu.csv) qmult = (file =C:\Users\13136\SMARTDS-2-PyDSS-Visualizer/profiles/res_kvar_46_pu.csv)

New Loadshape.res_kw_898_pu npts= 35040 interval=0.25 mult = (file =C:\Users\13136\SMARTDS-2-PyDSS-Visualizer/profiles/res_kw_898_pu.csv) qmult = (file =C:\Users\13136\SMARTDS-2-PyDSS-Visualizer/profiles/res_kvar_898_pu.csv)

New Loadshape.res_kw_512_pu npts= 35040 interval=0.25 mult = (file =C:\Users\13136\SMARTDS-2-PyDSS-Visualizer/profiles/res_kw_512_pu.csv) qmult = (file =C:\Users\13136\SMARTDS-2-PyDSS-Visualizer/profiles/res_kvar_512_pu.csv)

New Loadshape.res_kw_1013_pu npts= 35040 interval=0.25 mult = (file =C:\Users\13136\SMARTDS-2-PyDSS-Visualizer/profiles/res_kw_1013_pu.csv) qmult = (file =C:\Users\13136\SMARTDS-2-PyDSS-Visualizer/profiles/res_kvar_1013_pu.csv)

New Loadshape.res_kw_779_pu npts= 35040 interval=0.25 mult = (file =C:\Users\13136\SMARTDS-2-PyDSS-Visualizer/profiles/res_kw_779_pu.csv) qmult = (file =C:\Users\13136\SMARTDS-2-PyDSS-Visualizer/profiles/res_kvar_779_pu.csv)

New Loadshape.res_kw_850_pu npts= 35040 interval=0.25 mult = (file =C:\Users\13136\SMARTDS-2-PyDSS-Visualizer/profiles/res_kw_850_pu.csv) qmult = (file =C:\Users\13136\SMARTDS-2-PyDSS-Visualizer/profiles/res_kvar_850_pu.csv)

New Loadshape.res_kw_1036_pu npts= 35040 interval=0.25 mult = (file =C:\Users\13136\SMARTDS-2-PyDSS-Visualizer/profiles/res_kw_1036_pu.csv) qmult = (file =C:\Users\13136\SMARTDS-2-PyDSS-Visualizer/profiles/res_kvar_1036_pu.csv)

New Loadshape.res_kw_224_pu npts= 35040 interval=0.25 mult = (file =C:\Users\13136\SMARTDS-2-PyDSS-Visualizer/profiles/res_kw_224_pu.csv) qmult = (file =C:\Users\13136\SMARTDS-2-PyDSS-Visualizer/profiles/res_kvar_224_pu.csv)

New Loadshape.res_kw_616_pu npts= 35040 interval=0.25 mult = (file =C:\Users\13136\SMARTDS-2-PyDSS-Visualizer/profiles/res_kw_616_pu.csv) qmult = (file =C:\Users\13136\SMARTDS-2-PyDSS-Visualizer/profiles/res_kvar_616_pu.csv)

New Loadshape.res_kw_1115_pu npts= 35040 interval=0.25 mult = (file =C:\Users\13136\SMARTDS-2-PyDSS-Visualizer/profiles/res_kw_1115_pu.csv) qmult = (file =C:\Users\13136\SMARTDS-2-PyDSS-Visualizer/profiles/res_kvar_1115_pu.csv)

New Loadshape.res_kw_1223_pu npts= 35040 interval=0.25 mult = (file =C:\Users\13136\SMARTDS-2-PyDSS-Visualizer/profiles/res_kw_1223_pu.csv) qmult = (file =C:\Users\13136\SMARTDS-2-PyDSS-Visualizer/profiles/res_kvar_1223_pu.csv)

New Loadshape.res_kw_908_pu npts= 35040 interval=0.25 mult = (file =C:\Users\13136\SMARTDS-2-PyDSS-Visualizer/profiles/res_kw_908_pu.csv) qmult = (file =C:\Users\13136\SMARTDS-2-PyDSS-Visualizer/profiles/res_kvar_908_pu.csv)

New Loadshape.res_kw_561_pu npts= 35040 interval=0.25 mult = (file =C:\Users\13136\SMARTDS-2-PyDSS-Visualizer/profiles/res_kw_561_pu.csv) qmult = (file =C:\Users\13136\SMARTDS-2-PyDSS-Visualizer/profiles/res_kvar_561_pu.csv)

New Loadshape.res_kw_39_pu npts= 35040 interval=0.25 mult = (file =C:\Users\13136\SMARTDS-2-PyDSS-Visualizer/profiles/res_kw_39_pu.csv) qmult = (file =C:\Users\13136\SMARTDS-2-PyDSS-Visualizer/profiles/res_kvar_39_pu.csv)

New Loadshape.res_kw_807_pu npts= 35040 interval=0.25 mult = (file =C:\Users\13136\SMARTDS-2-PyDSS-Visualizer/profiles/res_kw_807_pu.csv) qmult = (file =C:\Users\13136\SMARTDS-2-PyDSS-Visualizer/profiles/res_kvar_807_pu.csv)

New Loadshape.res_kw_1228_pu npts= 35040 interval=0.25 mult = (file =C:\Users\13136\SMARTDS-2-PyDSS-Visualizer/profiles/res_kw_1228_pu.csv) qmult = (file =C:\Users\13136\SMARTDS-2-PyDSS-Visualizer/profiles/res_kvar_1228_pu.csv)

New Loadshape.res_kw_137_pu npts= 35040 interval=0.25 mult = (file =C:\Users\13136\SMARTDS-2-PyDSS-Visualizer/profiles/res_kw_137_pu.csv) qmult = (file =C:\Users\13136\SMARTDS-2-PyDSS-Visualizer/profiles/res_kvar_137_pu.csv)

New Loadshape.res_kw_928_pu npts= 35040 interval=0.25 mult = (file =C:\Users\13136\SMARTDS-2-PyDSS-Visualizer/profiles/res_kw_928_pu.csv) qmult = (file =C:\Users\13136\SMARTDS-2-PyDSS-Visualizer/profiles/res_kvar_928_pu.csv)

New Loadshape.res_kw_141_pu npts= 35040 interval=0.25 mult = (file =C:\Users\13136\SMARTDS-2-PyDSS-Visualizer/profiles/res_kw_141_pu.csv) qmult = (file =C:\Users\13136\SMARTDS-2-PyDSS-Visualizer/profiles/res_kvar_141_pu.csv)

New Loadshape.res_kw_206_pu npts= 35040 interval=0.25 mult = (file =C:\Users\13136\SMARTDS-2-PyDSS-Visualizer/profiles/res_kw_206_pu.csv) qmult = (file =C:\Users\13136\SMARTDS-2-PyDSS-Visualizer/profiles/res_kvar_206_pu.csv)

New Loadshape.res_kw_162_pu npts= 35040 interval=0.25 mult = (file =C:\Users\13136\SMARTDS-2-PyDSS-Visualizer/profiles/res_kw_162_pu.csv) qmult = (file =C:\Users\13136\SMARTDS-2-PyDSS-Visualizer/profiles/res_kvar_162_pu.csv)

New Loadshape.res_kw_1159_pu npts= 35040 interval=0.25 mult = (file =C:\Users\13136\SMARTDS-2-PyDSS-Visualizer/profiles/res_kw_1159_pu.csv) qmult = (file =C:\Users\13136\SMARTDS-2-PyDSS-Visualizer/profiles/res_kvar_1159_pu.csv)

New Loadshape.res_kw_128_pu npts= 35040 interval=0.25 mult = (file =C:\Users\13136\SMARTDS-2-PyDSS-Visualizer/profiles/res_kw_128_pu.csv) qmult = (file =C:\Users\13136\SMARTDS-2-PyDSS-Visualizer/profiles/res_kvar_128_pu.csv)

New Loadshape.res_kw_182_pu npts= 35040 interval=0.25 mult = (file =C:\Users\13136\SMARTDS-2-PyDSS-Visualizer/profiles/res_kw_182_pu.csv) qmult = (file =C:\Users\13136\SMARTDS-2-PyDSS-Visualizer/profiles/res_kvar_182_pu.csv)

New Loadshape.res_kw_627_pu npts= 35040 interval=0.25 mult = (file =C:\Users\13136\SMARTDS-2-PyDSS-Visualizer/profiles/res_kw_627_pu.csv) qmult = (file =C:\Users\13136\SMARTDS-2-PyDSS-Visualizer/profiles/res_kvar_627_pu.csv)

New Loadshape.res_kw_822_pu npts= 35040 interval=0.25 mult = (file =C:\Users\13136\SMARTDS-2-PyDSS-Visualizer/profiles/res_kw_822_pu.csv) qmult = (file =C:\Users\13136\SMARTDS-2-PyDSS-Visualizer/profiles/res_kvar_822_pu.csv)

New Loadshape.res_kw_30_pu npts= 35040 interval=0.25 mult = (file =C:\Users\13136\SMARTDS-2-PyDSS-Visualizer/profiles/res_kw_30_pu.csv) qmult = (file =C:\Users\13136\SMARTDS-2-PyDSS-Visualizer/profiles/res_kvar_30_pu.csv)

New Loadshape.res_kw_75_pu npts= 35040 interval=0.25 mult = (file =C:\Users\13136\SMARTDS-2-PyDSS-Visualizer/profiles/res_kw_75_pu.csv) qmult = (file =C:\Users\13136\SMARTDS-2-PyDSS-Visualizer/profiles/res_kvar_75_pu.csv)

New Loadshape.res_kw_411_pu npts= 35040 interval=0.25 mult = (file =C:\Users\13136\SMARTDS-2-PyDSS-Visualizer/profiles/res_kw_411_pu.csv) qmult = (file =C:\Users\13136\SMARTDS-2-PyDSS-Visualizer/profiles/res_kvar_411_pu.csv)

New Loadshape.res_kw_842_pu npts= 35040 interval=0.25 mult = (file =C:\Users\13136\SMARTDS-2-PyDSS-Visualizer/profiles/res_kw_842_pu.csv) qmult = (file =C:\Users\13136\SMARTDS-2-PyDSS-Visualizer/profiles/res_kvar_842_pu.csv)

New Loadshape.res_kw_26_pu npts= 35040 interval=0.25 mult = (file =C:\Users\13136\SMARTDS-2-PyDSS-Visualizer/profiles/res_kw_26_pu.csv) qmult = (file =C:\Users\13136\SMARTDS-2-PyDSS-Visualizer/profiles/res_kvar_26_pu.csv)

New Loadshape.res_kw_470_pu npts= 35040 interval=0.25 mult = (file =C:\Users\13136\SMARTDS-2-PyDSS-Visualizer/profiles/res_kw_470_pu.csv) qmult = (file =C:\Users\13136\SMARTDS-2-PyDSS-Visualizer/profiles/res_kvar_470_pu.csv)
