New Load.load_p1rlv1359_1 conn=wye bus1=p1rlv1359.1 kV=0.12 Vminpu=0.8 Vmaxpu=1.2 model=1 kW=3.9060227283575606 kvar=0.8578020352767629 Phases=1 yearly=res_kw_278_pu

New Load.load_p1rlv1359_2 conn=wye bus1=p1rlv1359.2 kV=0.12 Vminpu=0.8 Vmaxpu=1.2 model=1 kW=3.9060227283575606 kvar=0.8578020352767629 Phases=1 yearly=res_kw_278_pu

New Load.load_p1rlv1360_1 conn=wye bus1=p1rlv1360.1 kV=0.12 Vminpu=0.8 Vmaxpu=1.2 model=1 kW=4.278318909946325 kvar=1.3258964507916957 Phases=1 yearly=res_kw_1246_pu

New Load.load_p1rlv1360_2 conn=wye bus1=p1rlv1360.2 kV=0.12 Vminpu=0.8 Vmaxpu=1.2 model=1 kW=4.278318909946325 kvar=1.3258964507916957 Phases=1 yearly=res_kw_1246_pu

New Load.load_p1rlv1361_1 conn=wye bus1=p1rlv1361.1 kV=0.12 Vminpu=0.8 Vmaxpu=1.2 model=1 kW=5.6593015111322105 kvar=1.2761251920573724 Phases=1 yearly=res_kw_324_pu

New Load.load_p1rlv1361_2 conn=wye bus1=p1rlv1361.2 kV=0.12 Vminpu=0.8 Vmaxpu=1.2 model=1 kW=5.6593015111322105 kvar=1.2761251920573724 Phases=1 yearly=res_kw_324_pu

New Load.load_p1rlv1362_1 conn=wye bus1=p1rlv1362.1 kV=0.12 Vminpu=0.8 Vmaxpu=1.2 model=1 kW=2.40000228705824 kvar=1.0173787262529668 Phases=1 yearly=res_kw_1205_pu

New Load.load_p1rlv1362_2 conn=wye bus1=p1rlv1362.2 kV=0.12 Vminpu=0.8 Vmaxpu=1.2 model=1 kW=2.40000228705824 kvar=1.0173787262529668 Phases=1 yearly=res_kw_1205_pu

New Load.load_p1rlv1363_1 conn=wye bus1=p1rlv1363.1 kV=0.12 Vminpu=0.8 Vmaxpu=1.2 model=1 kW=5.436729579526792 kvar=1.2488470964899614 Phases=1 yearly=res_kw_454_pu

New Load.load_p1rlv1363_2 conn=wye bus1=p1rlv1363.2 kV=0.12 Vminpu=0.8 Vmaxpu=1.2 model=1 kW=5.436729579526792 kvar=1.2488470964899614 Phases=1 yearly=res_kw_454_pu

New Load.load_p1rlv1364_1 conn=wye bus1=p1rlv1364.1 kV=0.12 Vminpu=0.8 Vmaxpu=1.2 model=1 kW=5.020630418662337 kvar=1.4660260271132275 Phases=1 yearly=res_kw_664_pu

New Load.load_p1rlv1364_2 conn=wye bus1=p1rlv1364.2 kV=0.12 Vminpu=0.8 Vmaxpu=1.2 model=1 kW=5.020630418662337 kvar=1.4660260271132275 Phases=1 yearly=res_kw_664_pu

New Load.load_p1rlv1365_1 conn=wye bus1=p1rlv1365.1 kV=0.12 Vminpu=0.8 Vmaxpu=1.2 model=1 kW=3.2243036213034695 kvar=0.7302943484265993 Phases=1 yearly=res_kw_35_pu

New Load.load_p1rlv1365_2 conn=wye bus1=p1rlv1365.2 kV=0.12 Vminpu=0.8 Vmaxpu=1.2 model=1 kW=3.2243036213034695 kvar=0.7302943484265993 Phases=1 yearly=res_kw_35_pu

New Load.load_p1rlv1367_1 conn=wye bus1=p1rlv1367.1 kV=0.12 Vminpu=0.8 Vmaxpu=1.2 model=1 kW=4.817618468644212 kvar=1.1350426223715635 Phases=1 yearly=res_kw_843_pu

New Load.load_p1rlv1367_2 conn=wye bus1=p1rlv1367.2 kV=0.12 Vminpu=0.8 Vmaxpu=1.2 model=1 kW=4.817618468644212 kvar=1.1350426223715635 Phases=1 yearly=res_kw_843_pu

New Load.load_p1rlv1368_1 conn=wye bus1=p1rlv1368.1 kV=0.12 Vminpu=0.8 Vmaxpu=1.2 model=1 kW=7.195337616187572 kvar=1.3536865792954904 Phases=1 yearly=res_kw_462_pu

New Load.load_p1rlv1368_2 conn=wye bus1=p1rlv1368.2 kV=0.12 Vminpu=0.8 Vmaxpu=1.2 model=1 kW=7.195337616187572 kvar=1.3536865792954904 Phases=1 yearly=res_kw_462_pu

New Load.load_p1rlv1372_1 conn=wye bus1=p1rlv1372.1 kV=0.12 Vminpu=0.8 Vmaxpu=1.2 model=1 kW=9.358521499301396 kvar=0.9436008203397507 Phases=1 yearly=com_kw_12824_pu

New Load.load_p1rlv1372_2 conn=wye bus1=p1rlv1372.2 kV=0.12 Vminpu=0.8 Vmaxpu=1.2 model=1 kW=9.358521499301396 kvar=0.9436008203397507 Phases=1 yearly=com_kw_12824_pu

New Load.load_p1rlv1373 conn=wye bus1=p1rlv1373.1.2.3 kV=0.48 Vminpu=0.8 Vmaxpu=1.2 model=1 kW=35.575751352084666 kvar=8.679058106481836 Phases=3 yearly=com_kw_13354_pu

New Load.load_p1rlv1861 conn=wye bus1=p1rlv1861.1.2.3 kV=0.48 Vminpu=0.8 Vmaxpu=1.2 model=1 kW=41.27726434904335 kvar=10.826959957077602 Phases=3 yearly=com_kw_13682_pu

New Load.load_p1rlv1862_1 conn=wye bus1=p1rlv1862.1 kV=0.12 Vminpu=0.8 Vmaxpu=1.2 model=1 kW=1.8801200674575587 kvar=0.53962653273889 Phases=1 yearly=com_kw_13578_pu

New Load.load_p1rlv1862_2 conn=wye bus1=p1rlv1862.2 kV=0.12 Vminpu=0.8 Vmaxpu=1.2 model=1 kW=1.8801200674575587 kvar=0.53962653273889 Phases=1 yearly=com_kw_13578_pu

New Load.load_p1rlv1863_1 conn=wye bus1=p1rlv1863.1 kV=0.12 Vminpu=0.8 Vmaxpu=1.2 model=1 kW=3.469755020859998 kvar=0.8941520384931253 Phases=1 yearly=res_kw_4_pu

New Load.load_p1rlv1863_2 conn=wye bus1=p1rlv1863.2 kV=0.12 Vminpu=0.8 Vmaxpu=1.2 model=1 kW=3.469755020859998 kvar=0.8941520384931253 Phases=1 yearly=res_kw_4_pu

New Load.load_p1rlv1864_1 conn=wye bus1=p1rlv1864.1 kV=0.12 Vminpu=0.8 Vmaxpu=1.2 model=1 kW=6.215760550825127 kvar=0.1559871213980079 Phases=1 yearly=com_kw_13807_pu

New Load.load_p1rlv1864_2 conn=wye bus1=p1rlv1864.2 kV=0.12 Vminpu=0.8 Vmaxpu=1.2 model=1 kW=6.215760550825127 kvar=0.1559871213980079 Phases=1 yearly=com_kw_13807_pu

New Load.load_p1rlv1865_1 conn=wye bus1=p1rlv1865.1 kV=0.12 Vminpu=0.8 Vmaxpu=1.2 model=1 kW=3.8748715750127736 kvar=1.5614372175332516 Phases=1 yearly=res_kw_517_pu

New Load.load_p1rlv1865_2 conn=wye bus1=p1rlv1865.2 kV=0.12 Vminpu=0.8 Vmaxpu=1.2 model=1 kW=3.8748715750127736 kvar=1.5614372175332516 Phases=1 yearly=res_kw_517_pu

New Load.load_p1rlv1866 conn=wye bus1=p1rlv1866.1.2.3 kV=0.48 Vminpu=0.8 Vmaxpu=1.2 model=1 kW=25.30417501681602 kvar=7.179767776712684 Phases=3 yearly=com_kw_14809_pu

New Load.load_p1rlv1867 conn=wye bus1=p1rlv1867.1.2.3 kV=0.48 Vminpu=0.8 Vmaxpu=1.2 model=1 kW=17.07763364328434 kvar=4.974102561973731 Phases=3 yearly=com_kw_14828_pu

New Load.load_p1rlv1868_1 conn=wye bus1=p1rlv1868.1 kV=0.12 Vminpu=0.8 Vmaxpu=1.2 model=1 kW=5.503617962261267 kvar=0.25931014748492 Phases=1 yearly=com_kw_14123_pu

New Load.load_p1rlv1868_2 conn=wye bus1=p1rlv1868.2 kV=0.12 Vminpu=0.8 Vmaxpu=1.2 model=1 kW=5.503617962261267 kvar=0.25931014748492 Phases=1 yearly=com_kw_14123_pu

New Load.load_p1rlv1869_1 conn=wye bus1=p1rlv1869.1 kV=0.12 Vminpu=0.8 Vmaxpu=1.2 model=1 kW=3.789884331965197 kvar=1.0036576715582408 Phases=1 yearly=res_kw_670_pu

New Load.load_p1rlv1869_2 conn=wye bus1=p1rlv1869.2 kV=0.12 Vminpu=0.8 Vmaxpu=1.2 model=1 kW=3.789884331965197 kvar=1.0036576715582408 Phases=1 yearly=res_kw_670_pu

New Load.load_p1rlv1870_1 conn=wye bus1=p1rlv1870.1 kV=0.12 Vminpu=0.8 Vmaxpu=1.2 model=1 kW=4.2457196737435785 kvar=0.34891192789173087 Phases=1 yearly=res_kw_917_pu

New Load.load_p1rlv1870_2 conn=wye bus1=p1rlv1870.2 kV=0.12 Vminpu=0.8 Vmaxpu=1.2 model=1 kW=4.2457196737435785 kvar=0.34891192789173087 Phases=1 yearly=res_kw_917_pu

New Load.load_p1rlv1871_1 conn=wye bus1=p1rlv1871.1 kV=0.12 Vminpu=0.8 Vmaxpu=1.2 model=1 kW=2.623267981089487 kvar=1.212519304398851 Phases=1 yearly=res_kw_452_pu

New Load.load_p1rlv1871_2 conn=wye bus1=p1rlv1871.2 kV=0.12 Vminpu=0.8 Vmaxpu=1.2 model=1 kW=2.623267981089487 kvar=1.212519304398851 Phases=1 yearly=res_kw_452_pu

New Load.load_p1rlv1872_1 conn=wye bus1=p1rlv1872.1 kV=0.12 Vminpu=0.8 Vmaxpu=1.2 model=1 kW=4.729490236624554 kvar=0.8722842145726449 Phases=1 yearly=res_kw_624_pu

New Load.load_p1rlv1872_2 conn=wye bus1=p1rlv1872.2 kV=0.12 Vminpu=0.8 Vmaxpu=1.2 model=1 kW=4.729490236624554 kvar=0.8722842145726449 Phases=1 yearly=res_kw_624_pu

New Load.load_p1rlv1873_1 conn=wye bus1=p1rlv1873.1 kV=0.12 Vminpu=0.8 Vmaxpu=1.2 model=1 kW=2.6241521841182514 kvar=0.8429304779950015 Phases=1 yearly=res_kw_33_pu

New Load.load_p1rlv1873_2 conn=wye bus1=p1rlv1873.2 kV=0.12 Vminpu=0.8 Vmaxpu=1.2 model=1 kW=2.6241521841182514 kvar=0.8429304779950015 Phases=1 yearly=res_kw_33_pu

New Load.load_p1rlv1874_1 conn=wye bus1=p1rlv1874.1 kV=0.12 Vminpu=0.8 Vmaxpu=1.2 model=1 kW=3.8748715750127736 kvar=1.5614372175332516 Phases=1 yearly=res_kw_517_pu

New Load.load_p1rlv1874_2 conn=wye bus1=p1rlv1874.2 kV=0.12 Vminpu=0.8 Vmaxpu=1.2 model=1 kW=3.8748715750127736 kvar=1.5614372175332516 Phases=1 yearly=res_kw_517_pu

New Load.load_p1rlv1875_1 conn=wye bus1=p1rlv1875.1 kV=0.12 Vminpu=0.8 Vmaxpu=1.2 model=1 kW=5.436729579526792 kvar=1.2488470964899614 Phases=1 yearly=res_kw_454_pu

New Load.load_p1rlv1875_2 conn=wye bus1=p1rlv1875.2 kV=0.12 Vminpu=0.8 Vmaxpu=1.2 model=1 kW=5.436729579526792 kvar=1.2488470964899614 Phases=1 yearly=res_kw_454_pu

New Load.load_p1rlv1876_1 conn=wye bus1=p1rlv1876.1 kV=0.12 Vminpu=0.8 Vmaxpu=1.2 model=1 kW=9.591249211904968 kvar=2.0347748075499026 Phases=1 yearly=res_kw_319_pu

New Load.load_p1rlv1876_2 conn=wye bus1=p1rlv1876.2 kV=0.12 Vminpu=0.8 Vmaxpu=1.2 model=1 kW=9.591249211904968 kvar=2.0347748075499026 Phases=1 yearly=res_kw_319_pu

New Load.load_p1rlv1877_1 conn=wye bus1=p1rlv1877.1 kV=0.12 Vminpu=0.8 Vmaxpu=1.2 model=1 kW=2.1376631749204993 kvar=0.6218033466021168 Phases=1 yearly=res_kw_93_pu

New Load.load_p1rlv1877_2 conn=wye bus1=p1rlv1877.2 kV=0.12 Vminpu=0.8 Vmaxpu=1.2 model=1 kW=2.1376631749204993 kvar=0.6218033466021168 Phases=1 yearly=res_kw_93_pu

New Load.load_p1rlv1878_1 conn=wye bus1=p1rlv1878.1 kV=0.12 Vminpu=0.8 Vmaxpu=1.2 model=1 kW=5.466651771327982 kvar=1.2745975671486984 Phases=1 yearly=res_kw_933_pu

New Load.load_p1rlv1878_2 conn=wye bus1=p1rlv1878.2 kV=0.12 Vminpu=0.8 Vmaxpu=1.2 model=1 kW=5.466651771327982 kvar=1.2745975671486984 Phases=1 yearly=res_kw_933_pu

New Load.load_p1rlv1879_1 conn=wye bus1=p1rlv1879.1 kV=0.12 Vminpu=0.8 Vmaxpu=1.2 model=1 kW=3.629714039262861 kvar=1.2034402112399032 Phases=1 yearly=res_kw_203_pu

New Load.load_p1rlv1879_2 conn=wye bus1=p1rlv1879.2 kV=0.12 Vminpu=0.8 Vmaxpu=1.2 model=1 kW=3.629714039262861 kvar=1.2034402112399032 Phases=1 yearly=res_kw_203_pu

New Load.load_p1rlv1880_1 conn=wye bus1=p1rlv1880.1 kV=0.12 Vminpu=0.8 Vmaxpu=1.2 model=1 kW=5.436729579526792 kvar=1.2488470964899614 Phases=1 yearly=res_kw_454_pu

New Load.load_p1rlv1880_2 conn=wye bus1=p1rlv1880.2 kV=0.12 Vminpu=0.8 Vmaxpu=1.2 model=1 kW=5.436729579526792 kvar=1.2488470964899614 Phases=1 yearly=res_kw_454_pu

New Load.load_p1rlv1881_1 conn=wye bus1=p1rlv1881.1 kV=0.12 Vminpu=0.8 Vmaxpu=1.2 model=1 kW=3.0796087614169414 kvar=0.871795355808623 Phases=1 yearly=res_kw_732_pu

New Load.load_p1rlv1881_2 conn=wye bus1=p1rlv1881.2 kV=0.12 Vminpu=0.8 Vmaxpu=1.2 model=1 kW=3.0796087614169414 kvar=0.871795355808623 Phases=1 yearly=res_kw_732_pu

New Load.load_p1rlv1882_1 conn=wye bus1=p1rlv1882.1 kV=0.12 Vminpu=0.8 Vmaxpu=1.2 model=1 kW=7.088530083600876 kvar=2.6134476319600712 Phases=1 yearly=res_kw_267_pu

New Load.load_p1rlv1882_2 conn=wye bus1=p1rlv1882.2 kV=0.12 Vminpu=0.8 Vmaxpu=1.2 model=1 kW=7.088530083600876 kvar=2.6134476319600712 Phases=1 yearly=res_kw_267_pu

New Load.load_p1rlv1883_1 conn=wye bus1=p1rlv1883.1 kV=0.12 Vminpu=0.8 Vmaxpu=1.2 model=1 kW=3.8029744718879392 kvar=1.1462670306842289 Phases=1 yearly=res_kw_263_pu

New Load.load_p1rlv1883_2 conn=wye bus1=p1rlv1883.2 kV=0.12 Vminpu=0.8 Vmaxpu=1.2 model=1 kW=3.8029744718879392 kvar=1.1462670306842289 Phases=1 yearly=res_kw_263_pu

New Load.load_p1rlv1888_1 conn=wye bus1=p1rlv1888.1 kV=0.12 Vminpu=0.8 Vmaxpu=1.2 model=1 kW=4.725263221485363 kvar=1.0173757011563145 Phases=1 yearly=res_kw_752_pu

New Load.load_p1rlv1888_2 conn=wye bus1=p1rlv1888.2 kV=0.12 Vminpu=0.8 Vmaxpu=1.2 model=1 kW=4.725263221485363 kvar=1.0173757011563145 Phases=1 yearly=res_kw_752_pu

New Load.load_p1rlv1889_1 conn=wye bus1=p1rlv1889.1 kV=0.12 Vminpu=0.8 Vmaxpu=1.2 model=1 kW=4.8861141847383 kvar=1.2417687859549835 Phases=1 yearly=res_kw_549_pu

New Load.load_p1rlv1889_2 conn=wye bus1=p1rlv1889.2 kV=0.12 Vminpu=0.8 Vmaxpu=1.2 model=1 kW=4.8861141847383 kvar=1.2417687859549835 Phases=1 yearly=res_kw_549_pu

New Load.load_p1rlv1890_1 conn=wye bus1=p1rlv1890.1 kV=0.12 Vminpu=0.8 Vmaxpu=1.2 model=1 kW=10.375628907780863 kvar=4.616486224330442 Phases=1 yearly=res_kw_1267_pu

New Load.load_p1rlv1890_2 conn=wye bus1=p1rlv1890.2 kV=0.12 Vminpu=0.8 Vmaxpu=1.2 model=1 kW=10.375628907780863 kvar=4.616486224330442 Phases=1 yearly=res_kw_1267_pu

New Load.load_p1rlv1891_1 conn=wye bus1=p1rlv1891.1 kV=0.12 Vminpu=0.8 Vmaxpu=1.2 model=1 kW=2.6241521841182514 kvar=0.8429304779950015 Phases=1 yearly=res_kw_33_pu

New Load.load_p1rlv1891_2 conn=wye bus1=p1rlv1891.2 kV=0.12 Vminpu=0.8 Vmaxpu=1.2 model=1 kW=2.6241521841182514 kvar=0.8429304779950015 Phases=1 yearly=res_kw_33_pu

New Load.load_p1rlv1892_1 conn=wye bus1=p1rlv1892.1 kV=0.12 Vminpu=0.8 Vmaxpu=1.2 model=1 kW=4.879951297044161 kvar=1.5836330665665468 Phases=1 yearly=res_kw_985_pu

New Load.load_p1rlv1892_2 conn=wye bus1=p1rlv1892.2 kV=0.12 Vminpu=0.8 Vmaxpu=1.2 model=1 kW=4.879951297044161 kvar=1.5836330665665468 Phases=1 yearly=res_kw_985_pu

New Load.load_p1rlv1893_1 conn=wye bus1=p1rlv1893.1 kV=0.12 Vminpu=0.8 Vmaxpu=1.2 model=1 kW=2.40000228705824 kvar=1.0173787262529668 Phases=1 yearly=res_kw_1205_pu

New Load.load_p1rlv1893_2 conn=wye bus1=p1rlv1893.2 kV=0.12 Vminpu=0.8 Vmaxpu=1.2 model=1 kW=2.40000228705824 kvar=1.0173787262529668 Phases=1 yearly=res_kw_1205_pu

New Load.load_p1rlv1894_1 conn=wye bus1=p1rlv1894.1 kV=0.12 Vminpu=0.8 Vmaxpu=1.2 model=1 kW=2.40000228705824 kvar=1.0173787262529668 Phases=1 yearly=res_kw_1205_pu

New Load.load_p1rlv1894_2 conn=wye bus1=p1rlv1894.2 kV=0.12 Vminpu=0.8 Vmaxpu=1.2 model=1 kW=2.40000228705824 kvar=1.0173787262529668 Phases=1 yearly=res_kw_1205_pu

New Load.load_p1rlv1895_1 conn=wye bus1=p1rlv1895.1 kV=0.12 Vminpu=0.8 Vmaxpu=1.2 model=1 kW=3.3701610259235064 kvar=1.065454990641787 Phases=1 yearly=res_kw_1037_pu

New Load.load_p1rlv1895_2 conn=wye bus1=p1rlv1895.2 kV=0.12 Vminpu=0.8 Vmaxpu=1.2 model=1 kW=3.3701610259235064 kvar=1.065454990641787 Phases=1 yearly=res_kw_1037_pu

New Load.load_p1rlv1896_1 conn=wye bus1=p1rlv1896.1 kV=0.12 Vminpu=0.8 Vmaxpu=1.2 model=1 kW=3.4468581914223817 kvar=1.1411197390818253 Phases=1 yearly=res_kw_250_pu

New Load.load_p1rlv1896_2 conn=wye bus1=p1rlv1896.2 kV=0.12 Vminpu=0.8 Vmaxpu=1.2 model=1 kW=3.4468581914223817 kvar=1.1411197390818253 Phases=1 yearly=res_kw_250_pu

New Load.load_p1rlv1897_1 conn=wye bus1=p1rlv1897.1 kV=0.12 Vminpu=0.8 Vmaxpu=1.2 model=1 kW=4.4719654544990375 kvar=1.0992469987144322 Phases=1 yearly=res_kw_1157_pu

New Load.load_p1rlv1897_2 conn=wye bus1=p1rlv1897.2 kV=0.12 Vminpu=0.8 Vmaxpu=1.2 model=1 kW=4.4719654544990375 kvar=1.0992469987144322 Phases=1 yearly=res_kw_1157_pu

New Load.load_p1rlv1898_1 conn=wye bus1=p1rlv1898.1 kV=0.12 Vminpu=0.8 Vmaxpu=1.2 model=1 kW=2.9898249364160714 kvar=0.2983164502279761 Phases=1 yearly=res_kw_1070_pu

New Load.load_p1rlv1898_2 conn=wye bus1=p1rlv1898.2 kV=0.12 Vminpu=0.8 Vmaxpu=1.2 model=1 kW=2.9898249364160714 kvar=0.2983164502279761 Phases=1 yearly=res_kw_1070_pu

New Load.load_p1rlv1899_1 conn=wye bus1=p1rlv1899.1 kV=0.12 Vminpu=0.8 Vmaxpu=1.2 model=1 kW=5.234678621012209 kvar=0.9754045266364657 Phases=1 yearly=res_kw_929_pu

New Load.load_p1rlv1899_2 conn=wye bus1=p1rlv1899.2 kV=0.12 Vminpu=0.8 Vmaxpu=1.2 model=1 kW=5.234678621012209 kvar=0.9754045266364657 Phases=1 yearly=res_kw_929_pu

New Load.load_p1rlv1900_1 conn=wye bus1=p1rlv1900.1 kV=0.12 Vminpu=0.8 Vmaxpu=1.2 model=1 kW=1.9125830769553938 kvar=0.38820098749560866 Phases=1 yearly=res_kw_134_pu

New Load.load_p1rlv1900_2 conn=wye bus1=p1rlv1900.2 kV=0.12 Vminpu=0.8 Vmaxpu=1.2 model=1 kW=1.9125830769553938 kvar=0.38820098749560866 Phases=1 yearly=res_kw_134_pu

New Load.load_p1rlv1901_1 conn=wye bus1=p1rlv1901.1 kV=0.12 Vminpu=0.8 Vmaxpu=1.2 model=1 kW=4.8861141847383 kvar=1.2417687859549835 Phases=1 yearly=res_kw_549_pu

New Load.load_p1rlv1901_2 conn=wye bus1=p1rlv1901.2 kV=0.12 Vminpu=0.8 Vmaxpu=1.2 model=1 kW=4.8861141847383 kvar=1.2417687859549835 Phases=1 yearly=res_kw_549_pu

New Load.load_p1rlv1902_1 conn=wye bus1=p1rlv1902.1 kV=0.12 Vminpu=0.8 Vmaxpu=1.2 model=1 kW=4.666080754031652 kvar=0.9704814918535188 Phases=1 yearly=res_kw_280_pu

New Load.load_p1rlv1902_2 conn=wye bus1=p1rlv1902.2 kV=0.12 Vminpu=0.8 Vmaxpu=1.2 model=1 kW=4.666080754031652 kvar=0.9704814918535188 Phases=1 yearly=res_kw_280_pu

New Load.load_p1rlv1903_1 conn=wye bus1=p1rlv1903.1 kV=0.12 Vminpu=0.8 Vmaxpu=1.2 model=1 kW=2.40000228705824 kvar=1.0173787262529668 Phases=1 yearly=res_kw_1205_pu

New Load.load_p1rlv1903_2 conn=wye bus1=p1rlv1903.2 kV=0.12 Vminpu=0.8 Vmaxpu=1.2 model=1 kW=2.40000228705824 kvar=1.0173787262529668 Phases=1 yearly=res_kw_1205_pu

New Load.load_p1rlv1904_1 conn=wye bus1=p1rlv1904.1 kV=0.12 Vminpu=0.8 Vmaxpu=1.2 model=1 kW=2.6241521841182514 kvar=0.8429304779950015 Phases=1 yearly=res_kw_33_pu

New Load.load_p1rlv1904_2 conn=wye bus1=p1rlv1904.2 kV=0.12 Vminpu=0.8 Vmaxpu=1.2 model=1 kW=2.6241521841182514 kvar=0.8429304779950015 Phases=1 yearly=res_kw_33_pu

New Load.load_p1rlv1905_1 conn=wye bus1=p1rlv1905.1 kV=0.12 Vminpu=0.8 Vmaxpu=1.2 model=1 kW=2.40000228705824 kvar=1.0173787262529668 Phases=1 yearly=res_kw_1205_pu

New Load.load_p1rlv1905_2 conn=wye bus1=p1rlv1905.2 kV=0.12 Vminpu=0.8 Vmaxpu=1.2 model=1 kW=2.40000228705824 kvar=1.0173787262529668 Phases=1 yearly=res_kw_1205_pu

New Load.load_p1rlv1906_1 conn=wye bus1=p1rlv1906.1 kV=0.12 Vminpu=0.8 Vmaxpu=1.2 model=1 kW=3.469521951913567 kvar=0.9490620687569232 Phases=1 yearly=res_kw_825_pu

New Load.load_p1rlv1906_2 conn=wye bus1=p1rlv1906.2 kV=0.12 Vminpu=0.8 Vmaxpu=1.2 model=1 kW=3.469521951913567 kvar=0.9490620687569232 Phases=1 yearly=res_kw_825_pu

New Load.load_p1rlv1907_1 conn=wye bus1=p1rlv1907.1 kV=0.12 Vminpu=0.8 Vmaxpu=1.2 model=1 kW=3.3641909207712115 kvar=0.9284266244461494 Phases=1 yearly=res_kw_523_pu

New Load.load_p1rlv1907_2 conn=wye bus1=p1rlv1907.2 kV=0.12 Vminpu=0.8 Vmaxpu=1.2 model=1 kW=3.3641909207712115 kvar=0.9284266244461494 Phases=1 yearly=res_kw_523_pu

New Load.load_p1rlv1908_1 conn=wye bus1=p1rlv1908.1 kV=0.12 Vminpu=0.8 Vmaxpu=1.2 model=1 kW=5.952010513068915 kvar=1.0861641198514242 Phases=1 yearly=res_kw_1108_pu

New Load.load_p1rlv1908_2 conn=wye bus1=p1rlv1908.2 kV=0.12 Vminpu=0.8 Vmaxpu=1.2 model=1 kW=5.952010513068915 kvar=1.0861641198514242 Phases=1 yearly=res_kw_1108_pu

New Load.load_p1rlv1909_1 conn=wye bus1=p1rlv1909.1 kV=0.12 Vminpu=0.8 Vmaxpu=1.2 model=1 kW=5.9414229713995805 kvar=1.343207581329588 Phases=1 yearly=res_kw_595_pu

New Load.load_p1rlv1909_2 conn=wye bus1=p1rlv1909.2 kV=0.12 Vminpu=0.8 Vmaxpu=1.2 model=1 kW=5.9414229713995805 kvar=1.343207581329588 Phases=1 yearly=res_kw_595_pu

New Load.load_p1rlv1910_1 conn=wye bus1=p1rlv1910.1 kV=0.12 Vminpu=0.8 Vmaxpu=1.2 model=1 kW=7.7578735794910925 kvar=1.9049941012910125 Phases=1 yearly=res_kw_863_pu

New Load.load_p1rlv1910_2 conn=wye bus1=p1rlv1910.2 kV=0.12 Vminpu=0.8 Vmaxpu=1.2 model=1 kW=7.7578735794910925 kvar=1.9049941012910125 Phases=1 yearly=res_kw_863_pu

New Load.load_p1rlv1911_1 conn=wye bus1=p1rlv1911.1 kV=0.12 Vminpu=0.8 Vmaxpu=1.2 model=1 kW=5.675346369339635 kvar=1.238985226090579 Phases=1 yearly=res_kw_1186_pu

New Load.load_p1rlv1911_2 conn=wye bus1=p1rlv1911.2 kV=0.12 Vminpu=0.8 Vmaxpu=1.2 model=1 kW=5.675346369339635 kvar=1.238985226090579 Phases=1 yearly=res_kw_1186_pu

New Load.load_p1rlv1912_1 conn=wye bus1=p1rlv1912.1 kV=0.12 Vminpu=0.8 Vmaxpu=1.2 model=1 kW=7.088530083600876 kvar=2.6134476319600712 Phases=1 yearly=res_kw_267_pu

New Load.load_p1rlv1912_2 conn=wye bus1=p1rlv1912.2 kV=0.12 Vminpu=0.8 Vmaxpu=1.2 model=1 kW=7.088530083600876 kvar=2.6134476319600712 Phases=1 yearly=res_kw_267_pu

New Load.load_p1rlv1913_1 conn=wye bus1=p1rlv1913.1 kV=0.12 Vminpu=0.8 Vmaxpu=1.2 model=1 kW=5.436729579526792 kvar=1.2488470964899614 Phases=1 yearly=res_kw_454_pu

New Load.load_p1rlv1913_2 conn=wye bus1=p1rlv1913.2 kV=0.12 Vminpu=0.8 Vmaxpu=1.2 model=1 kW=5.436729579526792 kvar=1.2488470964899614 Phases=1 yearly=res_kw_454_pu

New Load.load_p1rlv1914_1 conn=wye bus1=p1rlv1914.1 kV=0.12 Vminpu=0.8 Vmaxpu=1.2 model=1 kW=5.436729579526792 kvar=1.2488470964899614 Phases=1 yearly=res_kw_454_pu

New Load.load_p1rlv1914_2 conn=wye bus1=p1rlv1914.2 kV=0.12 Vminpu=0.8 Vmaxpu=1.2 model=1 kW=5.436729579526792 kvar=1.2488470964899614 Phases=1 yearly=res_kw_454_pu

New Load.load_p1rlv1915_1 conn=wye bus1=p1rlv1915.1 kV=0.12 Vminpu=0.8 Vmaxpu=1.2 model=1 kW=6.495867403886884 kvar=1.0074089308244782 Phases=1 yearly=res_kw_597_pu

New Load.load_p1rlv1915_2 conn=wye bus1=p1rlv1915.2 kV=0.12 Vminpu=0.8 Vmaxpu=1.2 model=1 kW=6.495867403886884 kvar=1.0074089308244782 Phases=1 yearly=res_kw_597_pu

New Load.load_p1rlv1916_1 conn=wye bus1=p1rlv1916.1 kV=0.12 Vminpu=0.8 Vmaxpu=1.2 model=1 kW=5.6593015111322105 kvar=1.2761251920573724 Phases=1 yearly=res_kw_324_pu

New Load.load_p1rlv1916_2 conn=wye bus1=p1rlv1916.2 kV=0.12 Vminpu=0.8 Vmaxpu=1.2 model=1 kW=5.6593015111322105 kvar=1.2761251920573724 Phases=1 yearly=res_kw_324_pu

New Load.load_p1rlv1917_1 conn=wye bus1=p1rlv1917.1 kV=0.12 Vminpu=0.8 Vmaxpu=1.2 model=1 kW=2.6241521841182514 kvar=0.8429304779950015 Phases=1 yearly=res_kw_33_pu

New Load.load_p1rlv1917_2 conn=wye bus1=p1rlv1917.2 kV=0.12 Vminpu=0.8 Vmaxpu=1.2 model=1 kW=2.6241521841182514 kvar=0.8429304779950015 Phases=1 yearly=res_kw_33_pu

New Load.load_p1rlv1918_1 conn=wye bus1=p1rlv1918.1 kV=0.12 Vminpu=0.8 Vmaxpu=1.2 model=1 kW=2.40000228705824 kvar=1.0173787262529668 Phases=1 yearly=res_kw_1205_pu

New Load.load_p1rlv1918_2 conn=wye bus1=p1rlv1918.2 kV=0.12 Vminpu=0.8 Vmaxpu=1.2 model=1 kW=2.40000228705824 kvar=1.0173787262529668 Phases=1 yearly=res_kw_1205_pu

New Load.load_p1rlv1919_1 conn=wye bus1=p1rlv1919.1 kV=0.12 Vminpu=0.8 Vmaxpu=1.2 model=1 kW=6.139488924452324 kvar=1.0282575631325632 Phases=1 yearly=res_kw_421_pu

New Load.load_p1rlv1919_2 conn=wye bus1=p1rlv1919.2 kV=0.12 Vminpu=0.8 Vmaxpu=1.2 model=1 kW=6.139488924452324 kvar=1.0282575631325632 Phases=1 yearly=res_kw_421_pu

New Load.load_p1rlv1920_1 conn=wye bus1=p1rlv1920.1 kV=0.12 Vminpu=0.8 Vmaxpu=1.2 model=1 kW=5.436729579526792 kvar=1.2488470964899614 Phases=1 yearly=res_kw_454_pu

New Load.load_p1rlv1920_2 conn=wye bus1=p1rlv1920.2 kV=0.12 Vminpu=0.8 Vmaxpu=1.2 model=1 kW=5.436729579526792 kvar=1.2488470964899614 Phases=1 yearly=res_kw_454_pu

New Load.load_p1rlv1921_1 conn=wye bus1=p1rlv1921.1 kV=0.12 Vminpu=0.8 Vmaxpu=1.2 model=1 kW=2.4402285312138985 kvar=0.9342273883677934 Phases=1 yearly=res_kw_409_pu

New Load.load_p1rlv1921_2 conn=wye bus1=p1rlv1921.2 kV=0.12 Vminpu=0.8 Vmaxpu=1.2 model=1 kW=2.4402285312138985 kvar=0.9342273883677934 Phases=1 yearly=res_kw_409_pu

New Load.load_p1rlv1922_1 conn=wye bus1=p1rlv1922.1 kV=0.12 Vminpu=0.8 Vmaxpu=1.2 model=1 kW=5.436729579526792 kvar=1.2488470964899614 Phases=1 yearly=res_kw_454_pu

New Load.load_p1rlv1922_2 conn=wye bus1=p1rlv1922.2 kV=0.12 Vminpu=0.8 Vmaxpu=1.2 model=1 kW=5.436729579526792 kvar=1.2488470964899614 Phases=1 yearly=res_kw_454_pu

New Load.load_p1rlv1923_1 conn=wye bus1=p1rlv1923.1 kV=0.12 Vminpu=0.8 Vmaxpu=1.2 model=1 kW=7.088530083600876 kvar=2.6134476319600712 Phases=1 yearly=res_kw_267_pu

New Load.load_p1rlv1923_2 conn=wye bus1=p1rlv1923.2 kV=0.12 Vminpu=0.8 Vmaxpu=1.2 model=1 kW=7.088530083600876 kvar=2.6134476319600712 Phases=1 yearly=res_kw_267_pu

New Load.load_p1rlv1924_1 conn=wye bus1=p1rlv1924.1 kV=0.12 Vminpu=0.8 Vmaxpu=1.2 model=1 kW=2.40000228705824 kvar=1.0173787262529668 Phases=1 yearly=res_kw_1205_pu

New Load.load_p1rlv1924_2 conn=wye bus1=p1rlv1924.2 kV=0.12 Vminpu=0.8 Vmaxpu=1.2 model=1 kW=2.40000228705824 kvar=1.0173787262529668 Phases=1 yearly=res_kw_1205_pu

New Load.load_p1rlv1925_1 conn=wye bus1=p1rlv1925.1 kV=0.12 Vminpu=0.8 Vmaxpu=1.2 model=1 kW=3.8860911507913576 kvar=0.8379523517888391 Phases=1 yearly=res_kw_121_pu

New Load.load_p1rlv1925_2 conn=wye bus1=p1rlv1925.2 kV=0.12 Vminpu=0.8 Vmaxpu=1.2 model=1 kW=3.8860911507913576 kvar=0.8379523517888391 Phases=1 yearly=res_kw_121_pu

New Load.load_p1rlv1926_1 conn=wye bus1=p1rlv1926.1 kV=0.12 Vminpu=0.8 Vmaxpu=1.2 model=1 kW=2.5137827263873103 kvar=0.7927782724892762 Phases=1 yearly=res_kw_621_pu

New Load.load_p1rlv1926_2 conn=wye bus1=p1rlv1926.2 kV=0.12 Vminpu=0.8 Vmaxpu=1.2 model=1 kW=2.5137827263873103 kvar=0.7927782724892762 Phases=1 yearly=res_kw_621_pu

New Load.load_p1rlv1927_1 conn=wye bus1=p1rlv1927.1 kV=0.12 Vminpu=0.8 Vmaxpu=1.2 model=1 kW=4.900798918702608 kvar=1.063914780587451 Phases=1 yearly=res_kw_1193_pu

New Load.load_p1rlv1927_2 conn=wye bus1=p1rlv1927.2 kV=0.12 Vminpu=0.8 Vmaxpu=1.2 model=1 kW=4.900798918702608 kvar=1.063914780587451 Phases=1 yearly=res_kw_1193_pu

New Load.load_p1rlv1928_1 conn=wye bus1=p1rlv1928.1 kV=0.12 Vminpu=0.8 Vmaxpu=1.2 model=1 kW=2.1376631749204993 kvar=0.6218033466021168 Phases=1 yearly=res_kw_93_pu

New Load.load_p1rlv1928_2 conn=wye bus1=p1rlv1928.2 kV=0.12 Vminpu=0.8 Vmaxpu=1.2 model=1 kW=2.1376631749204993 kvar=0.6218033466021168 Phases=1 yearly=res_kw_93_pu

New Load.load_p1rlv1929_1 conn=wye bus1=p1rlv1929.1 kV=0.12 Vminpu=0.8 Vmaxpu=1.2 model=1 kW=2.1894046505184286 kvar=0.7281040757251952 Phases=1 yearly=res_kw_1042_pu

New Load.load_p1rlv1929_2 conn=wye bus1=p1rlv1929.2 kV=0.12 Vminpu=0.8 Vmaxpu=1.2 model=1 kW=2.1894046505184286 kvar=0.7281040757251952 Phases=1 yearly=res_kw_1042_pu

New Load.load_p1rlv1930_1 conn=wye bus1=p1rlv1930.1 kV=0.12 Vminpu=0.8 Vmaxpu=1.2 model=1 kW=2.916803644387601 kvar=0.11499518252231355 Phases=1 yearly=res_kw_1094_pu

New Load.load_p1rlv1930_2 conn=wye bus1=p1rlv1930.2 kV=0.12 Vminpu=0.8 Vmaxpu=1.2 model=1 kW=2.916803644387601 kvar=0.11499518252231355 Phases=1 yearly=res_kw_1094_pu

New Load.load_p1rlv1931_1 conn=wye bus1=p1rlv1931.1 kV=0.12 Vminpu=0.8 Vmaxpu=1.2 model=1 kW=1.07594874218897 kvar=0.4942830176942115 Phases=1 yearly=res_kw_366_pu

New Load.load_p1rlv1931_2 conn=wye bus1=p1rlv1931.2 kV=0.12 Vminpu=0.8 Vmaxpu=1.2 model=1 kW=1.07594874218897 kvar=0.4942830176942115 Phases=1 yearly=res_kw_366_pu

New Load.load_p1rlv1932_1 conn=wye bus1=p1rlv1932.1 kV=0.12 Vminpu=0.8 Vmaxpu=1.2 model=1 kW=2.6241521841182514 kvar=0.8429304779950015 Phases=1 yearly=res_kw_33_pu

New Load.load_p1rlv1932_2 conn=wye bus1=p1rlv1932.2 kV=0.12 Vminpu=0.8 Vmaxpu=1.2 model=1 kW=2.6241521841182514 kvar=0.8429304779950015 Phases=1 yearly=res_kw_33_pu

New Load.load_p1rlv1933_1 conn=wye bus1=p1rlv1933.1 kV=0.12 Vminpu=0.8 Vmaxpu=1.2 model=1 kW=10.375628907780863 kvar=4.616486224330442 Phases=1 yearly=res_kw_1267_pu

New Load.load_p1rlv1933_2 conn=wye bus1=p1rlv1933.2 kV=0.12 Vminpu=0.8 Vmaxpu=1.2 model=1 kW=10.375628907780863 kvar=4.616486224330442 Phases=1 yearly=res_kw_1267_pu

New Load.load_p1rlv1934_1 conn=wye bus1=p1rlv1934.1 kV=0.12 Vminpu=0.8 Vmaxpu=1.2 model=1 kW=13.793674087523804 kvar=0.8506323916315093 Phases=1 yearly=com_kw_14989_pu

New Load.load_p1rlv1934_2 conn=wye bus1=p1rlv1934.2 kV=0.12 Vminpu=0.8 Vmaxpu=1.2 model=1 kW=13.793674087523804 kvar=0.8506323916315093 Phases=1 yearly=com_kw_14989_pu

New Load.load_p1rlv1935 conn=wye bus1=p1rlv1935.1.2.3 kV=0.48 Vminpu=0.8 Vmaxpu=1.2 model=1 kW=44.35837261883928 kvar=1.66152394986815 Phases=3 yearly=com_kw_14360_pu

New Load.load_p1rlv1936_1 conn=wye bus1=p1rlv1936.1 kV=0.12 Vminpu=0.8 Vmaxpu=1.2 model=1 kW=5.175662860651579 kvar=0.30737530232154564 Phases=1 yearly=com_kw_13393_pu

New Load.load_p1rlv1936_2 conn=wye bus1=p1rlv1936.2 kV=0.12 Vminpu=0.8 Vmaxpu=1.2 model=1 kW=5.175662860651579 kvar=0.30737530232154564 Phases=1 yearly=com_kw_13393_pu

New Load.load_p1rlv1937_1 conn=wye bus1=p1rlv1937.1 kV=0.12 Vminpu=0.8 Vmaxpu=1.2 model=1 kW=4.295703971004243 kvar=1.5592692759891595 Phases=1 yearly=res_kw_282_pu

New Load.load_p1rlv1937_2 conn=wye bus1=p1rlv1937.2 kV=0.12 Vminpu=0.8 Vmaxpu=1.2 model=1 kW=4.295703971004243 kvar=1.5592692759891595 Phases=1 yearly=res_kw_282_pu

New Load.load_p1rlv1938_1 conn=wye bus1=p1rlv1938.1 kV=0.12 Vminpu=0.8 Vmaxpu=1.2 model=1 kW=7.7578735794910925 kvar=1.9049941012910125 Phases=1 yearly=res_kw_863_pu

New Load.load_p1rlv1938_2 conn=wye bus1=p1rlv1938.2 kV=0.12 Vminpu=0.8 Vmaxpu=1.2 model=1 kW=7.7578735794910925 kvar=1.9049941012910125 Phases=1 yearly=res_kw_863_pu

New Load.load_p1rlv1939_1 conn=wye bus1=p1rlv1939.1 kV=0.12 Vminpu=0.8 Vmaxpu=1.2 model=1 kW=4.295703971004243 kvar=1.5592692759891595 Phases=1 yearly=res_kw_282_pu

New Load.load_p1rlv1939_2 conn=wye bus1=p1rlv1939.2 kV=0.12 Vminpu=0.8 Vmaxpu=1.2 model=1 kW=4.295703971004243 kvar=1.5592692759891595 Phases=1 yearly=res_kw_282_pu

New Load.load_p1rlv1940_1 conn=wye bus1=p1rlv1940.1 kV=0.12 Vminpu=0.8 Vmaxpu=1.2 model=1 kW=1.07594874218897 kvar=0.4942830176942115 Phases=1 yearly=res_kw_366_pu

New Load.load_p1rlv1940_2 conn=wye bus1=p1rlv1940.2 kV=0.12 Vminpu=0.8 Vmaxpu=1.2 model=1 kW=1.07594874218897 kvar=0.4942830176942115 Phases=1 yearly=res_kw_366_pu

New Load.load_p1rlv1941_1 conn=wye bus1=p1rlv1941.1 kV=0.12 Vminpu=0.8 Vmaxpu=1.2 model=1 kW=5.166227040370808 kvar=0.941312930764753 Phases=1 yearly=res_kw_852_pu

New Load.load_p1rlv1941_2 conn=wye bus1=p1rlv1941.2 kV=0.12 Vminpu=0.8 Vmaxpu=1.2 model=1 kW=5.166227040370808 kvar=0.941312930764753 Phases=1 yearly=res_kw_852_pu

New Load.load_p1rlv1942_1 conn=wye bus1=p1rlv1942.1 kV=0.12 Vminpu=0.8 Vmaxpu=1.2 model=1 kW=1.8636614682402992 kvar=0.5015179682387616 Phases=1 yearly=res_kw_532_pu

New Load.load_p1rlv1942_2 conn=wye bus1=p1rlv1942.2 kV=0.12 Vminpu=0.8 Vmaxpu=1.2 model=1 kW=1.8636614682402992 kvar=0.5015179682387616 Phases=1 yearly=res_kw_532_pu

New Load.load_p1rlv1943_1 conn=wye bus1=p1rlv1943.1 kV=0.12 Vminpu=0.8 Vmaxpu=1.2 model=1 kW=3.629714039262861 kvar=1.2034402112399032 Phases=1 yearly=res_kw_203_pu

New Load.load_p1rlv1943_2 conn=wye bus1=p1rlv1943.2 kV=0.12 Vminpu=0.8 Vmaxpu=1.2 model=1 kW=3.629714039262861 kvar=1.2034402112399032 Phases=1 yearly=res_kw_203_pu

New Load.load_p1rlv1944_1 conn=wye bus1=p1rlv1944.1 kV=0.12 Vminpu=0.8 Vmaxpu=1.2 model=1 kW=3.629714039262861 kvar=1.2034402112399032 Phases=1 yearly=res_kw_203_pu

New Load.load_p1rlv1944_2 conn=wye bus1=p1rlv1944.2 kV=0.12 Vminpu=0.8 Vmaxpu=1.2 model=1 kW=3.629714039262861 kvar=1.2034402112399032 Phases=1 yearly=res_kw_203_pu

New Load.load_p1rlv1945_1 conn=wye bus1=p1rlv1945.1 kV=0.12 Vminpu=0.8 Vmaxpu=1.2 model=1 kW=2.9898249364160714 kvar=0.2983164502279761 Phases=1 yearly=res_kw_1070_pu

New Load.load_p1rlv1945_2 conn=wye bus1=p1rlv1945.2 kV=0.12 Vminpu=0.8 Vmaxpu=1.2 model=1 kW=2.9898249364160714 kvar=0.2983164502279761 Phases=1 yearly=res_kw_1070_pu

New Load.load_p1rlv1946_1 conn=wye bus1=p1rlv1946.1 kV=0.12 Vminpu=0.8 Vmaxpu=1.2 model=1 kW=5.991917116566147 kvar=1.6692124001399427 Phases=1 yearly=res_kw_314_pu
