New Loadshape.com_kw_14666_pu npts= 35040 interval=0.25 mult = (file=C:\SMARTDS-2-PyDSS-Visualizer/profiles/com_kw_14666_pu.csv) qmult = (file=C:\SMARTDS-2-PyDSS-Visualizer/profiles/com_kvar_14666_pu.csv)

New Loadshape.com_kw_13887_pu npts= 35040 interval=0.25 mult = (file=C:\SMARTDS-2-PyDSS-Visualizer/profiles/com_kw_13887_pu.csv) qmult = (file=C:\SMARTDS-2-PyDSS-Visualizer/profiles/com_kvar_13887_pu.csv)

New Loadshape.com_kw_14427_pu npts= 35040 interval=0.25 mult = (file=C:\SMARTDS-2-PyDSS-Visualizer/profiles/com_kw_14427_pu.csv) qmult = (file=C:\SMARTDS-2-PyDSS-Visualizer/profiles/com_kvar_14427_pu.csv)

New Loadshape.com_kw_13420_pu npts= 35040 interval=0.25 mult = (file=C:\SMARTDS-2-PyDSS-Visualizer/profiles/com_kw_13420_pu.csv) qmult = (file=C:\SMARTDS-2-PyDSS-Visualizer/profiles/com_kvar_13420_pu.csv)

New Loadshape.com_kw_13636_pu npts= 35040 interval=0.25 mult = (file=C:\SMARTDS-2-PyDSS-Visualizer/profiles/com_kw_13636_pu.csv) qmult = (file=C:\SMARTDS-2-PyDSS-Visualizer/profiles/com_kvar_13636_pu.csv)

New Loadshape.com_kw_14095_pu npts= 35040 interval=0.25 mult = (file=C:\SMARTDS-2-PyDSS-Visualizer/profiles/com_kw_14095_pu.csv) qmult = (file=C:\SMARTDS-2-PyDSS-Visualizer/profiles/com_kvar_14095_pu.csv)

New Loadshape.com_kw_13683_pu npts= 35040 interval=0.25 mult = (file=C:\SMARTDS-2-PyDSS-Visualizer/profiles/com_kw_13683_pu.csv) qmult = (file=C:\SMARTDS-2-PyDSS-Visualizer/profiles/com_kvar_13683_pu.csv)

New Loadshape.com_kw_14388_pu npts= 35040 interval=0.25 mult = (file=C:\SMARTDS-2-PyDSS-Visualizer/profiles/com_kw_14388_pu.csv) qmult = (file=C:\SMARTDS-2-PyDSS-Visualizer/profiles/com_kvar_14388_pu.csv)

New Loadshape.com_kw_13026_pu npts= 35040 interval=0.25 mult = (file=C:\SMARTDS-2-PyDSS-Visualizer/profiles/com_kw_13026_pu.csv) qmult = (file=C:\SMARTDS-2-PyDSS-Visualizer/profiles/com_kvar_13026_pu.csv)

New Loadshape.com_kw_14810_pu npts= 35040 interval=0.25 mult = (file=C:\SMARTDS-2-PyDSS-Visualizer/profiles/com_kw_14810_pu.csv) qmult = (file=C:\SMARTDS-2-PyDSS-Visualizer/profiles/com_kvar_14810_pu.csv)

New Loadshape.com_kw_13831_pu npts= 35040 interval=0.25 mult = (file=C:\SMARTDS-2-PyDSS-Visualizer/profiles/com_kw_13831_pu.csv) qmult = (file=C:\SMARTDS-2-PyDSS-Visualizer/profiles/com_kvar_13831_pu.csv)

New Loadshape.com_kw_13114_pu npts= 35040 interval=0.25 mult = (file=C:\SMARTDS-2-PyDSS-Visualizer/profiles/com_kw_13114_pu.csv) qmult = (file=C:\SMARTDS-2-PyDSS-Visualizer/profiles/com_kvar_13114_pu.csv)

New Loadshape.com_kw_14918_pu npts= 35040 interval=0.25 mult = (file=C:\SMARTDS-2-PyDSS-Visualizer/profiles/com_kw_14918_pu.csv) qmult = (file=C:\SMARTDS-2-PyDSS-Visualizer/profiles/com_kvar_14918_pu.csv)

New Loadshape.com_kw_15010_pu npts= 35040 interval=0.25 mult = (file=C:\SMARTDS-2-PyDSS-Visualizer/profiles/com_kw_15010_pu.csv) qmult = (file=C:\SMARTDS-2-PyDSS-Visualizer/profiles/com_kvar_15010_pu.csv)

New Loadshape.com_kw_12922_pu npts= 35040 interval=0.25 mult = (file=C:\SMARTDS-2-PyDSS-Visualizer/profiles/com_kw_12922_pu.csv) qmult = (file=C:\SMARTDS-2-PyDSS-Visualizer/profiles/com_kvar_12922_pu.csv)

New Loadshape.com_kw_14987_pu npts= 35040 interval=0.25 mult = (file=C:\SMARTDS-2-PyDSS-Visualizer/profiles/com_kw_14987_pu.csv) qmult = (file=C:\SMARTDS-2-PyDSS-Visualizer/profiles/com_kvar_14987_pu.csv)

New Loadshape.com_kw_14842_pu npts= 35040 interval=0.25 mult = (file=C:\SMARTDS-2-PyDSS-Visualizer/profiles/com_kw_14842_pu.csv) qmult = (file=C:\SMARTDS-2-PyDSS-Visualizer/profiles/com_kvar_14842_pu.csv)

New Loadshape.com_kw_14854_pu npts= 35040 interval=0.25 mult = (file=C:\SMARTDS-2-PyDSS-Visualizer/profiles/com_kw_14854_pu.csv) qmult = (file=C:\SMARTDS-2-PyDSS-Visualizer/profiles/com_kvar_14854_pu.csv)

New Loadshape.com_kw_14125_pu npts= 35040 interval=0.25 mult = (file=C:\SMARTDS-2-PyDSS-Visualizer/profiles/com_kw_14125_pu.csv) qmult = (file=C:\SMARTDS-2-PyDSS-Visualizer/profiles/com_kvar_14125_pu.csv)

New Loadshape.com_kw_12791_pu npts= 35040 interval=0.25 mult = (file=C:\SMARTDS-2-PyDSS-Visualizer/profiles/com_kw_12791_pu.csv) qmult = (file=C:\SMARTDS-2-PyDSS-Visualizer/profiles/com_kvar_12791_pu.csv)

New Loadshape.com_kw_13517_pu npts= 35040 interval=0.25 mult = (file=C:\SMARTDS-2-PyDSS-Visualizer/profiles/com_kw_13517_pu.csv) qmult = (file=C:\SMARTDS-2-PyDSS-Visualizer/profiles/com_kvar_13517_pu.csv)

New Loadshape.com_kw_14074_pu npts= 35040 interval=0.25 mult = (file=C:\SMARTDS-2-PyDSS-Visualizer/profiles/com_kw_14074_pu.csv) qmult = (file=C:\SMARTDS-2-PyDSS-Visualizer/profiles/com_kvar_14074_pu.csv)

New Loadshape.com_kw_15161_pu npts= 35040 interval=0.25 mult = (file=C:\SMARTDS-2-PyDSS-Visualizer/profiles/com_kw_15161_pu.csv) qmult = (file=C:\SMARTDS-2-PyDSS-Visualizer/profiles/com_kvar_15161_pu.csv)

New Loadshape.com_kw_13797_pu npts= 35040 interval=0.25 mult = (file=C:\SMARTDS-2-PyDSS-Visualizer/profiles/com_kw_13797_pu.csv) qmult = (file=C:\SMARTDS-2-PyDSS-Visualizer/profiles/com_kvar_13797_pu.csv)

New Loadshape.com_kw_14067_pu npts= 35040 interval=0.25 mult = (file=C:\SMARTDS-2-PyDSS-Visualizer/profiles/com_kw_14067_pu.csv) qmult = (file=C:\SMARTDS-2-PyDSS-Visualizer/profiles/com_kvar_14067_pu.csv)

