New Line.l(r:p2udt7lv-p2ulv8) Units=km Length=0.015143500000000002 bus1=p2udt7lv.1.2 bus2=p2ulv8.1.2 switch=n enabled=y phases=2 Linecode=1P_UG_AL_1/0_Brenau_2

New Line.l(r:p2udm47-p2ulv45287) Units=km Length=0.0117064 bus1=p2udm47.1.2 bus2=p2ulv45287.1.2 switch=n enabled=y phases=2 Linecode=1P_UG_AL_1/0_Brenau_2

New Line.l(r:p2udm44-p2ulv17456) Units=km Length=0.0163566 bus1=p2udm44.1.2 bus2=p2ulv17456.1.2 switch=n enabled=y phases=2 Linecode=1P_UG_AL_1/0_Brenau_2

New Line.l(r:p2udm44-p2ulv45286) Units=km Length=0.0116852 bus1=p2udm44.1.2 bus2=p2ulv45286.1.2 switch=n enabled=y phases=2 Linecode=1P_UG_AL_1/0_Brenau_2

New Line.l(r:p2udm44-p2udm47) Units=km Length=0.00937568 bus1=p2udm47.1.2 bus2=p2udm44.1.2 switch=n enabled=y phases=2 Linecode=1P_UG_AL_4/0_Sweetbriar_2

New Line.l(r:p2udm47-p2udt7lv) Units=km Length=0.0187448 bus1=p2udt7lv.1.2 bus2=p2udm47.1.2 switch=n enabled=y phases=2 Linecode=1P_UG_AL_4/0_Sweetbriar_2

New Line.l(r:p2udm48-p2ulv45290) Units=km Length=0.012865 bus1=p2udm48.1.2 bus2=p2ulv45290.1.2 switch=n enabled=y phases=2 Linecode=1P_UG_AL_1/0_Brenau_2

New Line.l(r:p2udm45-p2ulv28805) Units=km Length=0.0136325 bus1=p2udm45.1.2 bus2=p2ulv28805.1.2 switch=n enabled=y phases=2 Linecode=1P_UG_AL_1/0_Brenau_2

New Line.l(r:p2udm45-p2udm48) Units=km Length=0.0278459 bus1=p2udm48.1.2 bus2=p2udm45.1.2 switch=n enabled=y phases=2 Linecode=1P_UG_AL_1/0_Brenau_2

New Line.l(r:p2udm48-p2udt7lv) Units=km Length=0.00937732 bus1=p2udt7lv.1.2 bus2=p2udm48.1.2 switch=n enabled=y phases=2 Linecode=1P_UG_AL_2/0_Converse_2

New Line.l(r:p2udt657lv-p2ulv1334) Units=km Length=0.013426300000000002 bus1=p2udt657lv.1.2 bus2=p2ulv1334.1.2 switch=n enabled=y phases=2 Linecode=1P_UG_AL_2/0_Converse_2

New Line.l(r:p2udt657lv-p2ulv19017) Units=km Length=0.0127475 bus1=p2udt657lv.1.2 bus2=p2ulv19017.1.2 switch=n enabled=y phases=2 Linecode=1P_UG_AL_1/0_Brenau_2

New Line.l(r:p2udm2265-p2ulv2497) Units=km Length=0.0100062 bus1=p2udm2265.1.2 bus2=p2ulv2497.1.2 switch=n enabled=y phases=2 Linecode=1P_UG_AL_1/0_Brenau_2

New Line.l(r:p2udm2265-p2udt657lv) Units=km Length=0.00979325 bus1=p2udt657lv.1.2 bus2=p2udm2265.1.2 switch=n enabled=y phases=2 Linecode=1P_UG_AL_1/0_Brenau_2

New Line.l(r:p2udm2267-p2ulv19018) Units=km Length=0.0121276 bus1=p2udm2267.1.2 bus2=p2ulv19018.1.2 switch=n enabled=y phases=2 Linecode=1P_UG_AL_1/0_Brenau_2

New Line.l(r:p2udm2268-p2ulv19020) Units=km Length=0.0121083 bus1=p2udm2268.1.2 bus2=p2ulv19020.1.2 switch=n enabled=y phases=2 Linecode=1P_UG_AL_1/0_Brenau_2

New Line.l(r:p2udm2267-p2udm2268) Units=km Length=0.00979325 bus1=p2udm2267.1.2 bus2=p2udm2268.1.2 switch=n enabled=y phases=2 Linecode=1P_UG_AL_1/0_Brenau_2

New Line.l(r:p2udm2267-p2udt657lv) Units=km Length=0.00979161 bus1=p2udt657lv.1.2 bus2=p2udm2267.1.2 switch=n enabled=y phases=2 Linecode=1P_UG_AL_4/0_Sweetbriar_2

New Line.l(r:p2udm2558-p2ulv15565) Units=km Length=0.0107787 bus1=p2udm2558.1.2 bus2=p2ulv15565.1.2 switch=n enabled=y phases=2 Linecode=1P_UG_AL_1/0_Brenau_2

New Line.l(r:p2udm2560-p2ulv45256) Units=km Length=0.00912781 bus1=p2udm2560.1.2 bus2=p2ulv45256.1.2 switch=n enabled=y phases=2 Linecode=1P_UG_AL_1/0_Brenau_2

New Line.l(r:p2udm2561-p2ulv45258) Units=km Length=0.011191 bus1=p2udm2561.1.2 bus2=p2ulv45258.1.2 switch=n enabled=y phases=2 Linecode=1P_UG_AL_1/0_Brenau_2

New Line.l(r:p2udm2560-p2udm2561) Units=km Length=0.0459594 bus1=p2udm2560.1.2 bus2=p2udm2561.1.2 switch=n enabled=y phases=2 Linecode=1P_UG_AL_1/0_Brenau_2

New Line.l(r:p2udm2558-p2udm2560) Units=km Length=0.00930663 bus1=p2udm2558.1.2 bus2=p2udm2560.1.2 switch=n enabled=y phases=2 Linecode=1P_UG_AL_1/0_Brenau_2

New Line.l(r:p2udm2558-p2udt713lv) Units=km Length=0.00929512 bus1=p2udt713lv.1.2 bus2=p2udm2558.1.2 switch=n enabled=y phases=2 Linecode=1P_UG_AL_4/0_Sweetbriar_2

New Line.l(r:p2udm2559-p2ulv44012) Units=km Length=0.0135097 bus1=p2udm2559.1.2 bus2=p2ulv44012.1.2 switch=n enabled=y phases=2 Linecode=1P_UG_AL_1/0_Brenau_2

New Line.l(r:p2udm2559-p2ulv45259) Units=km Length=0.010399500000000002 bus1=p2udm2559.1.2 bus2=p2ulv45259.1.2 switch=n enabled=y phases=2 Linecode=1P_UG_AL_1/0_Brenau_2

New Line.l(r:p2udm2557-p2ulv1398) Units=km Length=0.0198449 bus1=p2udm2557.1.2 bus2=p2ulv1398.1.2 switch=n enabled=y phases=2 Linecode=1P_UG_AL_1/0_Brenau_2

New Line.l(r:p2udm2557-p2ulv45260) Units=km Length=0.0102933 bus1=p2udm2557.1.2 bus2=p2ulv45260.1.2 switch=n enabled=y phases=2 Linecode=1P_UG_AL_1/0_Brenau_2

New Line.l(r:p2udm2557-p2udm2559) Units=km Length=0.00930663 bus1=p2udm2559.1.2 bus2=p2udm2557.1.2 switch=n enabled=y phases=2 Linecode=1P_UG_AL_1/0_Brenau_2

New Line.l(r:p2udm2559-p2udt713lv) Units=km Length=0.00929676 bus1=p2udt713lv.1.2 bus2=p2udm2559.1.2 switch=n enabled=y phases=2 Linecode=1P_UG_AL_2/0_Converse_2

New Line.l(r:p2udt1143lv-p2ulv20158) Units=km Length=0.011064000000000001 bus1=p2udt1143lv.1.2 bus2=p2ulv20158.1.2 switch=n enabled=y phases=2 Linecode=1P_UG_AL_1/0_Brenau_2

New Line.l(r:p2udm3805-p2ulv2398) Units=km Length=0.0424724 bus1=p2udm3805.1.2 bus2=p2ulv2398.1.2 switch=n enabled=y phases=2 Linecode=1P_UG_AL_1/0_Brenau_2

New Line.l(r:p2udm3805-p2ulv20156) Units=km Length=0.0127772 bus1=p2udm3805.1.2 bus2=p2ulv20156.1.2 switch=n enabled=y phases=2 Linecode=1P_UG_AL_1/0_Brenau_2

New Line.l(r:p2udm3805-p2ulv22999) Units=km Length=0.0104169 bus1=p2udm3805.1.2 bus2=p2ulv22999.1.2 switch=n enabled=y phases=2 Linecode=1P_UG_AL_1/0_Brenau_2

New Line.l(r:p2udm3807-p2ulv20153) Units=km Length=0.00990234 bus1=p2udm3807.1.2 bus2=p2ulv20153.1.2 switch=n enabled=y phases=2 Linecode=1P_UG_AL_1/0_Brenau_2

New Line.l(r:p2udm3805-p2udm3807) Units=km Length=0.00971105 bus1=p2udm3805.1.2 bus2=p2udm3807.1.2 switch=n enabled=y phases=2 Linecode=1P_UG_AL_1/0_Brenau_2

New Line.l(r:p2udm3805-p2udt1143lv) Units=km Length=0.009712690000000001 bus1=p2udt1143lv.1.2 bus2=p2udm3805.1.2 switch=n enabled=y phases=2 Linecode=1P_UG_AL_4/0_Sweetbriar_2

New Line.l(r:p2udm3806-p2ulv20146) Units=km Length=0.0102259 bus1=p2udm3806.1.2 bus2=p2ulv20146.1.2 switch=n enabled=y phases=2 Linecode=1P_UG_AL_1/0_Brenau_2

New Line.l(r:p2udm3806-p2ulv20159) Units=km Length=0.010918 bus1=p2udm3806.1.2 bus2=p2ulv20159.1.2 switch=n enabled=y phases=2 Linecode=1P_UG_AL_1/0_Brenau_2

New Line.l(r:p2udm3811-p2ulv20160) Units=km Length=0.010531200000000001 bus1=p2udm3811.1.2 bus2=p2ulv20160.1.2 switch=n enabled=y phases=2 Linecode=1P_UG_AL_1/0_Brenau_2

New Line.l(r:p2udm3812-p2ulv20163) Units=km Length=0.013941100000000001 bus1=p2udm3812.1.2 bus2=p2ulv20163.1.2 switch=n enabled=y phases=2 Linecode=1P_UG_AL_1/0_Brenau_2

New Line.l(r:p2udm3811-p2udm3812) Units=km Length=0.0194336 bus1=p2udm3811.1.2 bus2=p2udm3812.1.2 switch=n enabled=y phases=2 Linecode=1P_UG_AL_1/0_Brenau_2

New Line.l(r:p2udm3806-p2udm3811) Units=km Length=0.00971105 bus1=p2udm3806.1.2 bus2=p2udm3811.1.2 switch=n enabled=y phases=2 Linecode=1P_UG_AL_2/0_Converse_2

New Line.l(r:p2udm3806-p2udt1143lv) Units=km Length=0.00971105 bus1=p2udt1143lv.1.2 bus2=p2udm3806.1.2 switch=n enabled=y phases=2 Linecode=1P_UG_AL_4/0_Sweetbriar_2

New Line.l(r:p2udt1192lv-p2ulv17453) Units=km Length=0.0159888 bus1=p2udt1192lv.1.2 bus2=p2ulv17453.1.2 switch=n enabled=y phases=2 Linecode=1P_OH_AL_2/0_Rucina_2

New Line.l(r:p2udt1192lv-p2ulv45310) Units=km Length=0.0136376 bus1=p2udt1192lv.1.2 bus2=p2ulv45310.1.2 switch=n enabled=y phases=2 Linecode=1P_OH_AL_2/0_Rucina_2

New Line.l(r:p2udm4019-p2ulv2456) Units=km Length=0.0142703 bus1=p2udm4019.1.2 bus2=p2ulv2456.1.2 switch=n enabled=y phases=2 Linecode=1P_OH_AL_2/0_Rucina_2

New Line.l(r:p2udm4019-p2udt1192lv) Units=km Length=0.0192511 bus1=p2udt1192lv.1.2 bus2=p2udm4019.1.2 switch=n enabled=y phases=2 Linecode=1P_OH_AL_2/0_Rucina_2

New Line.l(r:p2udm4020-p2ulv17452) Units=km Length=0.0163494 bus1=p2udm4020.1.2 bus2=p2ulv17452.1.2 switch=n enabled=y phases=2 Linecode=1P_OH_AL_2/0_Rucina_2_3

New Line.l(r:p2udm4020-p2ulv45309) Units=km Length=0.0148937 bus1=p2udm4020.1.2 bus2=p2ulv45309.1.2 switch=n enabled=y phases=2 Linecode=1P_OH_AL_2/0_Rucina_2

New Line.l(r:p2udm4024-p2ulv45312) Units=km Length=0.0144514 bus1=p2udm4024.1.2 bus2=p2ulv45312.1.2 switch=n enabled=y phases=2 Linecode=1P_OH_AL_2/0_Rucina_2

New Line.l(r:p2udm4020-p2udm4024) Units=km Length=0.0192511 bus1=p2udm4020.1.2 bus2=p2udm4024.1.2 switch=n enabled=y phases=2 Linecode=1P_OH_AL_2/0_Rucina_2

New Line.l(r:p2udm4020-p2udt1192lv) Units=km Length=0.0192511 bus1=p2udt1192lv.1.2 bus2=p2udm4020.1.2 switch=n enabled=y phases=2 Linecode=1P_OH_AL_2/0_Rucina_2_2

New Line.l(r:p2udt1209lv-p2ulv45255) Units=km Length=0.0102502 bus1=p2udt1209lv.1.2 bus2=p2ulv45255.1.2 switch=n enabled=y phases=2 Linecode=1P_UG_AL_1/0_Brenau_2

New Line.l(r:p2udm4087-p2ulv2475) Units=km Length=0.0331397 bus1=p2udm4087.1.2 bus2=p2ulv2475.1.2 switch=n enabled=y phases=2 Linecode=1P_UG_AL_1/0_Brenau_2

New Line.l(r:p2udm4087-p2ulv35726) Units=km Length=0.00960926 bus1=p2udm4087.1.2 bus2=p2ulv35726.1.2 switch=n enabled=y phases=2 Linecode=1P_UG_AL_1/0_Brenau_2

New Line.l(r:p2udm4093-p2ulv45264) Units=km Length=0.011109 bus1=p2udm4093.1.2 bus2=p2ulv45264.1.2 switch=n enabled=y phases=2 Linecode=1P_UG_AL_1/0_Brenau_2

New Line.l(r:p2udm4087-p2udm4093) Units=km Length=0.00961076 bus1=p2udm4087.1.2 bus2=p2udm4093.1.2 switch=n enabled=y phases=2 Linecode=1P_UG_AL_1/0_Brenau_2

New Line.l(r:p2udm4087-p2udt1209lv) Units=km Length=0.00961076 bus1=p2udt1209lv.1.2 bus2=p2udm4087.1.2 switch=n enabled=y phases=2 Linecode=1P_UG_AL_4/0_Sweetbriar_2

New Line.l(r:p2udm4089-p2ulv45253) Units=km Length=0.00995266 bus1=p2udm4089.1.2 bus2=p2ulv45253.1.2 switch=n enabled=y phases=2 Linecode=1P_UG_AL_1/0_Brenau_2

New Line.l(r:p2udm4090-p2ulv45254) Units=km Length=0.0098059 bus1=p2udm4090.1.2 bus2=p2ulv45254.1.2 switch=n enabled=y phases=2 Linecode=1P_UG_AL_2/0_Converse_2

New Line.l(r:p2udm4090-p2ulv45257) Units=km Length=0.0102712 bus1=p2udm4090.1.2 bus2=p2ulv45257.1.2 switch=n enabled=y phases=2 Linecode=1P_UG_AL_1/0_Brenau_2

New Line.l(r:p2udm4089-p2udm4090) Units=km Length=0.00962063 bus1=p2udm4089.1.2 bus2=p2udm4090.1.2 switch=n enabled=y phases=2 Linecode=1P_UG_AL_4/0_Sweetbriar_2

New Line.l(r:p2udm4089-p2udt1209lv) Units=km Length=0.00961076 bus1=p2udt1209lv.1.2 bus2=p2udm4089.1.2 switch=n enabled=y phases=2 Linecode=1P_UG_AL_4/0_Sweetbriar_2

New Line.l(r:p2udt1243lv-p2ulv18670) Units=km Length=0.011944 bus1=p2udt1243lv.1.2 bus2=p2ulv18670.1.2 switch=n enabled=y phases=2 Linecode=1P_UG_AL_2/0_Converse_2

New Line.l(r:p2udt1243lv-p2ulv19029) Units=km Length=0.0174177 bus1=p2udt1243lv.1.2 bus2=p2ulv19029.1.2 switch=n enabled=y phases=2 Linecode=1P_UG_AL_1/0_Brenau_2

New Line.l(r:p2udm4233-p2ulv2514) Units=km Length=0.0176082 bus1=p2udm4233.1.2 bus2=p2ulv2514.1.2 switch=n enabled=y phases=2 Linecode=1P_UG_AL_1/0_Brenau_2

New Line.l(r:p2udm4237-p2ulv45084) Units=km Length=0.00919133 bus1=p2udm4237.1.2 bus2=p2ulv45084.1.2 switch=n enabled=y phases=2 Linecode=1P_UG_AL_2/0_Converse_2

New Line.l(r:p2udm4233-p2udm4237) Units=km Length=0.00996423 bus1=p2udm4233.1.2 bus2=p2udm4237.1.2 switch=n enabled=y phases=2 Linecode=1P_UG_AL_2/0_Converse_2

New Line.l(r:p2udm4233-p2udt1243lv) Units=km Length=0.009956 bus1=p2udt1243lv.1.2 bus2=p2udm4233.1.2 switch=n enabled=y phases=2 Linecode=1P_UG_AL_4/0_Sweetbriar_2

New Line.l(r:p2udm4234-p2ulv18667) Units=km Length=0.0135981 bus1=p2udm4234.1.2 bus2=p2ulv18667.1.2 switch=n enabled=y phases=2 Linecode=1P_UG_AL_1/0_Brenau_2

New Line.l(r:p2udm4234-p2udt1243lv) Units=km Length=0.0398405 bus1=p2udt1243lv.1.2 bus2=p2udm4234.1.2 switch=n enabled=y phases=2 Linecode=1P_UG_AL_1/0_Brenau_2

New Line.l(r:p2udt1609lv-p2ulv46163) Units=km Length=0.0095237 bus1=p2udt1609lv.1.2 bus2=p2ulv46163.1.2 switch=n enabled=y phases=2 Linecode=1P_UG_AL_2/0_Converse_2

New Line.l(r:p2udm5560-p2ulv3459) Units=km Length=0.0138266 bus1=p2udm5560.1.2 bus2=p2ulv3459.1.2 switch=n enabled=y phases=2 Linecode=1P_UG_AL_4/0_Sweetbriar_2

New Line.l(r:p2udm5560-p2udt1609lv) Units=km Length=0.00931814 bus1=p2udt1609lv.1.2 bus2=p2udm5560.1.2 switch=n enabled=y phases=2 Linecode=1P_UG_AL_4/0_Sweetbriar_2

New Line.l(r:p2udt1614lv-p2ulv3466) Units=km Length=0.0141522 bus1=p2udt1614lv.1.2 bus2=p2ulv3466.1.2 switch=n enabled=y phases=2 Linecode=1P_UG_AL_1/0_Brenau_2

New Line.l(r:p2udm5582-p2ulv6953) Units=km Length=0.0137527 bus1=p2udm5582.1.2 bus2=p2ulv6953.1.2 switch=n enabled=y phases=2 Linecode=1P_UG_AL_1/0_Brenau_2

New Line.l(r:p2udm5582-p2udt1614lv) Units=km Length=0.00972092 bus1=p2udt1614lv.1.2 bus2=p2udm5582.1.2 switch=n enabled=y phases=2 Linecode=1P_UG_AL_1/0_Brenau_2

New Line.l(r:p2udm5583-p2ulv44085) Units=km Length=0.013878100000000003 bus1=p2udm5583.1.2 bus2=p2ulv44085.1.2 switch=n enabled=y phases=2 Linecode=1P_UG_AL_1/0_Brenau_2

New Line.l(r:p2udm5583-p2udt1614lv) Units=km Length=0.009732420000000002 bus1=p2udt1614lv.1.2 bus2=p2udm5583.1.2 switch=n enabled=y phases=2 Linecode=1P_UG_AL_1/0_Brenau_2

New Line.l(r:p2udm5853-p2ulv3538) Units=km Length=0.0433342 bus1=p2udm5853.1.2 bus2=p2ulv3538.1.2 switch=n enabled=y phases=2 Linecode=1P_UG_AL_1/0_Brenau_2

New Line.l(r:p2udm5853-p2udt1677lv) Units=km Length=0.009893530000000001 bus1=p2udt1677lv.1.2 bus2=p2udm5853.1.2 switch=n enabled=y phases=2 Linecode=1P_UG_AL_1/0_Brenau_2

New Line.l(r:p2udm5854-p2ulv15571) Units=km Length=0.0102003 bus1=p2udm5854.1.2 bus2=p2ulv15571.1.2 switch=n enabled=y phases=2 Linecode=1P_UG_AL_4/0_Sweetbriar_2

New Line.l(r:p2udm5854-p2udt1677lv) Units=km Length=0.009893530000000001 bus1=p2udt1677lv.1.2 bus2=p2udm5854.1.2 switch=n enabled=y phases=2 Linecode=1P_UG_AL_4/0_Sweetbriar_2

New Line.l(r:p2udt1687lv-p2ulv20105) Units=km Length=0.0126895 bus1=p2udt1687lv.1.2 bus2=p2ulv20105.1.2 switch=n enabled=y phases=2 Linecode=1P_UG_AL_1/0_Brenau_2

New Line.l(r:p2udm5887-p2ulv3549) Units=km Length=0.0111688 bus1=p2udm5887.1.2 bus2=p2ulv3549.1.2 switch=n enabled=y phases=2 Linecode=1P_UG_AL_2/0_Converse_2

New Line.l(r:p2udm5887-p2ulv20106) Units=km Length=0.0142932 bus1=p2udm5887.1.2 bus2=p2ulv20106.1.2 switch=n enabled=y phases=2 Linecode=1P_UG_AL_4/0_Sweetbriar_2

New Line.l(r:p2udm5887-p2udt1687lv) Units=km Length=0.00989518 bus1=p2udt1687lv.1.2 bus2=p2udm5887.1.2 switch=n enabled=y phases=2 Linecode=1P_UG_AL_4/0_Sweetbriar_2

New Line.l(r:p2udm5888-p2ulv20104) Units=km Length=0.0116379 bus1=p2udm5888.1.2 bus2=p2ulv20104.1.2 switch=n enabled=y phases=2 Linecode=1P_UG_AL_1/0_Brenau_2

New Line.l(r:p2udm5888-p2udt1687lv) Units=km Length=0.009893530000000001 bus1=p2udt1687lv.1.2 bus2=p2udm5888.1.2 switch=n enabled=y phases=2 Linecode=1P_UG_AL_1/0_Brenau_2

New Line.l(r:p2udt1706lv-p2ulv3572) Units=km Length=0.0125015 bus1=p2udt1706lv.1.2 bus2=p2ulv3572.1.2 switch=n enabled=y phases=2 Linecode=1P_UG_AL_1/0_Brenau_2

New Line.l(r:p2udm5967-p2ulv18610) Units=km Length=0.0114095 bus1=p2udm5967.1.2 bus2=p2ulv18610.1.2 switch=n enabled=y phases=2 Linecode=1P_UG_AL_1/0_Brenau_2

New Line.l(r:p2udm5967-p2udt1706lv) Units=km Length=0.09245970000000002 bus1=p2udt1706lv.1.2 bus2=p2udm5967.1.2 switch=n enabled=y phases=2 Linecode=1P_UG_AL_1/0_Brenau_2

New Line.l(r:p2udm5968-p2ulv44757) Units=km Length=0.00883544 bus1=p2udm5968.1.2 bus2=p2ulv44757.1.2 switch=n enabled=y phases=2 Linecode=1P_UG_AL_1/0_Brenau_2

New Line.l(r:p2udm5969-p2ulv44760) Units=km Length=0.00911305 bus1=p2udm5969.1.2 bus2=p2ulv44760.1.2 switch=n enabled=y phases=2 Linecode=1P_UG_AL_1/0_Brenau_2

New Line.l(r:p2udm5968-p2udm5969) Units=km Length=0.0193909 bus1=p2udm5968.1.2 bus2=p2udm5969.1.2 switch=n enabled=y phases=2 Linecode=1P_UG_AL_1/0_Brenau_2

New Line.l(r:p2udm5968-p2udt1706lv) Units=km Length=0.009699550000000001 bus1=p2udt1706lv.1.2 bus2=p2udm5968.1.2 switch=n enabled=y phases=2 Linecode=1P_UG_AL_4/0_Sweetbriar_2

New Line.l(r:p2udt1731lv-p2ulv19049) Units=km Length=0.013281800000000002 bus1=p2udt1731lv.1.2 bus2=p2ulv19049.1.2 switch=n enabled=y phases=2 Linecode=1P_UG_AL_4/0_Sweetbriar_2

New Line.l(r:p2udm6080-p2ulv3606) Units=km Length=0.0178516 bus1=p2udm6080.1.2 bus2=p2ulv3606.1.2 switch=n enabled=y phases=2 Linecode=1P_UG_AL_1/0_Brenau_2

New Line.l(r:p2udm6080-p2ulv37096) Units=km Length=0.0101476 bus1=p2udm6080.1.2 bus2=p2ulv37096.1.2 switch=n enabled=y phases=2 Linecode=1P_UG_AL_4/0_Sweetbriar_2

New Line.l(r:p2udm6080-p2udt1731lv) Units=km Length=0.0092869 bus1=p2udt1731lv.1.2 bus2=p2udm6080.1.2 switch=n enabled=y phases=2 Linecode=1P_UG_AL_4/0_Sweetbriar_2

New Line.l(r:p2udm6081-p2ulv19048) Units=km Length=0.0113194 bus1=p2udm6081.1.2 bus2=p2ulv19048.1.2 switch=n enabled=y phases=2 Linecode=1P_UG_AL_1/0_Brenau_2

New Line.l(r:p2udm6081-p2udt1731lv) Units=km Length=0.0092869 bus1=p2udt1731lv.1.2 bus2=p2udm6081.1.2 switch=n enabled=y phases=2 Linecode=1P_UG_AL_1/0_Brenau_2

New Line.l(r:p2udm6418-p2ulv3729) Units=km Length=0.0106101 bus1=p2udm6418.1.2 bus2=p2ulv3729.1.2 switch=n enabled=y phases=2 Linecode=1P_UG_AL_2/0_Converse_2

New Line.l(r:p2udm6418-p2udt1818lv) Units=km Length=0.00978338 bus1=p2udt1818lv.1.2 bus2=p2udm6418.1.2 switch=n enabled=y phases=2 Linecode=1P_UG_AL_2/0_Converse_2

New Line.l(r:p2udm6419-p2ulv20525) Units=km Length=0.00996687 bus1=p2udm6419.1.2 bus2=p2ulv20525.1.2 switch=n enabled=y phases=2 Linecode=1P_UG_AL_1/0_Brenau_2

New Line.l(r:p2udm6419-p2udt1818lv) Units=km Length=0.00978338 bus1=p2udt1818lv.1.2 bus2=p2udm6419.1.2 switch=n enabled=y phases=2 Linecode=1P_UG_AL_1/0_Brenau_2

New Line.l(r:p2udt1846lv-p2ulv20082) Units=km Length=0.0153643 bus1=p2udt1846lv.1.2 bus2=p2ulv20082.1.2 switch=n enabled=y phases=2 Linecode=1P_UG_AL_1/0_Brenau_2

New Line.l(r:p2udm6552-p2ulv3765) Units=km Length=0.0156547 bus1=p2udm6552.1.2 bus2=p2ulv3765.1.2 switch=n enabled=y phases=2 Linecode=1P_UG_AL_1/0_Brenau_2

New Line.l(r:p2udm6552-p2ulv20083) Units=km Length=0.0171501 bus1=p2udm6552.1.2 bus2=p2ulv20083.1.2 switch=n enabled=y phases=2 Linecode=1P_UG_AL_4/0_Sweetbriar_2

New Line.l(r:p2udm6552-p2udt1846lv) Units=km Length=0.00979325 bus1=p2udt1846lv.1.2 bus2=p2udm6552.1.2 switch=n enabled=y phases=2 Linecode=1P_UG_AL_4/0_Sweetbriar_2

New Line.l(r:p2udm6553-p2ulv20080) Units=km Length=0.0159031 bus1=p2udm6553.1.2 bus2=p2ulv20080.1.2 switch=n enabled=y phases=2 Linecode=1P_UG_AL_1/0_Brenau_2

New Line.l(r:p2udm6553-p2udt1846lv) Units=km Length=0.00979161 bus1=p2udt1846lv.1.2 bus2=p2udm6553.1.2 switch=n enabled=y phases=2 Linecode=1P_UG_AL_1/0_Brenau_2

New Line.l(r:p2udt1850lv-p2ulv45224) Units=km Length=0.0124283 bus1=p2udt1850lv.1.2 bus2=p2ulv45224.1.2 switch=n enabled=y phases=2 Linecode=1P_UG_AL_1/0_Brenau_2

New Line.l(r:p2udt1850lv-p2ulv45234) Units=km Length=0.0100345 bus1=p2udt1850lv.1.2 bus2=p2ulv45234.1.2 switch=n enabled=y phases=2 Linecode=1P_UG_AL_1/0_Brenau_2

New Line.l(r:p2udm6573-p2ulv3771) Units=km Length=0.00919629 bus1=p2udm6573.1.2 bus2=p2ulv3771.1.2 switch=n enabled=y phases=2 Linecode=1P_UG_AL_4/0_Sweetbriar_2

New Line.l(r:p2udm6573-p2ulv45223) Units=km Length=0.0127728 bus1=p2udm6573.1.2 bus2=p2ulv45223.1.2 switch=n enabled=y phases=2 Linecode=1P_UG_AL_1/0_Brenau_2

New Line.l(r:p2udm6573-p2udt1850lv) Units=km Length=0.00982448 bus1=p2udt1850lv.1.2 bus2=p2udm6573.1.2 switch=n enabled=y phases=2 Linecode=1P_UG_AL_4/0_Sweetbriar_2

New Line.l(r:p2udm6576-p2ulv45232) Units=km Length=0.0101171 bus1=p2udm6576.1.2 bus2=p2ulv45232.1.2 switch=n enabled=y phases=2 Linecode=1P_UG_AL_1/0_Brenau_2

New Line.l(r:p2udm6576-p2udt1850lv) Units=km Length=0.0196572 bus1=p2udt1850lv.1.2 bus2=p2udm6576.1.2 switch=n enabled=y phases=2 Linecode=1P_UG_AL_1/0_Brenau_2

New Line.l(r:p2udt2321lv-p2ulv4825) Units=km Length=0.00931107 bus1=p2udt2321lv.1.2 bus2=p2ulv4825.1.2 switch=n enabled=y phases=2 Linecode=1P_UG_AL_1/0_Brenau_2

New Line.l(r:p2udt2321lv-p2ulv45174) Units=km Length=0.012092 bus1=p2udt2321lv.1.2 bus2=p2ulv45174.1.2 switch=n enabled=y phases=2 Linecode=1P_UG_AL_2/0_Converse_2

New Line.l(r:p2udm8198-p2ulv44779) Units=km Length=0.00872929 bus1=p2udm8198.1.2 bus2=p2ulv44779.1.2 switch=n enabled=y phases=2 Linecode=1P_UG_AL_1/0_Brenau_2

New Line.l(r:p2udm8199-p2ulv44783) Units=km Length=0.01415 bus1=p2udm8199.1.2 bus2=p2ulv44783.1.2 switch=n enabled=y phases=2 Linecode=1P_UG_AL_2/0_Converse_2

New Line.l(r:p2udm8198-p2udm8199) Units=km Length=0.0688684 bus1=p2udm8198.1.2 bus2=p2udm8199.1.2 switch=n enabled=y phases=2 Linecode=1P_UG_AL_2/0_Converse_2

New Line.l(r:p2udm8198-p2udt2321lv) Units=km Length=0.00932636 bus1=p2udt2321lv.1.2 bus2=p2udm8198.1.2 switch=n enabled=y phases=2 Linecode=1P_UG_AL_4/0_Sweetbriar_2

New Line.l(r:p2udm8200-p2ulv44793) Units=km Length=0.020046900000000003 bus1=p2udm8200.1.2 bus2=p2ulv44793.1.2 switch=n enabled=y phases=2 Linecode=1P_UG_AL_2/0_Converse_2

New Line.l(r:p2udm8200-p2udt2321lv) Units=km Length=0.00931649 bus1=p2udt2321lv.1.2 bus2=p2udm8200.1.2 switch=n enabled=y phases=2 Linecode=1P_UG_AL_2/0_Converse_2

New Line.l(r:p2udt2721lv-p2ulv20085) Units=km Length=0.0173784 bus1=p2udt2721lv.1.2 bus2=p2ulv20085.1.2 switch=n enabled=y phases=2 Linecode=1P_UG_AL_1/0_Brenau_2

New Line.l(r:p2udt2721lv-p2ulv43482) Units=km Length=0.0157868 bus1=p2udt2721lv.1.2 bus2=p2ulv43482.1.2 switch=n enabled=y phases=2 Linecode=1P_UG_AL_1/0_Brenau_2

New Line.l(r:p2udm9417-p2ulv5802) Units=km Length=0.0133506 bus1=p2udm9417.1.2 bus2=p2ulv5802.1.2 switch=n enabled=y phases=2 Linecode=1P_UG_AL_4/0_Sweetbriar_2

New Line.l(r:p2udm9417-p2ulv20086) Units=km Length=0.0171491 bus1=p2udm9417.1.2 bus2=p2ulv20086.1.2 switch=n enabled=y phases=2 Linecode=1P_UG_AL_1/0_Brenau_2

New Line.l(r:p2udm9417-p2udt2721lv) Units=km Length=0.00979161 bus1=p2udt2721lv.1.2 bus2=p2udm9417.1.2 switch=n enabled=y phases=2 Linecode=1P_UG_AL_4/0_Sweetbriar_2

New Line.l(r:p2udm9421-p2ulv20121) Units=km Length=0.0130918 bus1=p2udm9421.1.2 bus2=p2ulv20121.1.2 switch=n enabled=y phases=2 Linecode=1P_UG_AL_1/0_Brenau_2

New Line.l(r:p2udm9420-p2ulv20087) Units=km Length=0.0195751 bus1=p2udm9420.1.2 bus2=p2ulv20087.1.2 switch=n enabled=y phases=2 Linecode=1P_UG_AL_1/0_Brenau_2

New Line.l(r:p2udm9420-p2udm9421) Units=km Length=0.00978174 bus1=p2udm9421.1.2 bus2=p2udm9420.1.2 switch=n enabled=y phases=2 Linecode=1P_UG_AL_1/0_Brenau_2

New Line.l(r:p2udm9421-p2udt2721lv) Units=km Length=0.00979325 bus1=p2udt2721lv.1.2 bus2=p2udm9421.1.2 switch=n enabled=y phases=2 Linecode=1P_UG_AL_2/0_Converse_2

New Line.l(r:p2udt2826lv-p2ulv16873) Units=km Length=0.0133956 bus1=p2udt2826lv.1.2 bus2=p2ulv16873.1.2 switch=n enabled=y phases=2 Linecode=1P_UG_AL_1/0_Brenau_2

New Line.l(r:p2udm9765-p2ulv5961) Units=km Length=0.0130719 bus1=p2udm9765.1.2 bus2=p2ulv5961.1.2 switch=n enabled=y phases=2 Linecode=1P_UG_AL_1/0_Brenau_2

New Line.l(r:p2udm9765-p2ulv19014) Units=km Length=0.0106427 bus1=p2udm9765.1.2 bus2=p2ulv19014.1.2 switch=n enabled=y phases=2 Linecode=1P_UG_AL_1/0_Brenau_2

New Line.l(r:p2udm9770-p2ulv27206) Units=km Length=0.0129174 bus1=p2udm9770.1.2 bus2=p2ulv27206.1.2 switch=n enabled=y phases=2 Linecode=1P_UG_AL_1/0_Brenau_2

New Line.l(r:p2udm9765-p2udm9770) Units=km Length=0.00995436 bus1=p2udm9765.1.2 bus2=p2udm9770.1.2 switch=n enabled=y phases=2 Linecode=1P_UG_AL_1/0_Brenau_2

New Line.l(r:p2udm9765-p2udt2826lv) Units=km Length=0.009965870000000002 bus1=p2udt2826lv.1.2 bus2=p2udm9765.1.2 switch=n enabled=y phases=2 Linecode=1P_UG_AL_4/0_Sweetbriar_2

New Line.l(r:p2udm9767-p2ulv18665) Units=km Length=0.0132855 bus1=p2udm9767.1.2 bus2=p2ulv18665.1.2 switch=n enabled=y phases=2 Linecode=1P_UG_AL_2/0_Converse_2

New Line.l(r:p2udm9767-p2ulv19023) Units=km Length=0.0156253 bus1=p2udm9767.1.2 bus2=p2ulv19023.1.2 switch=n enabled=y phases=2 Linecode=1P_UG_AL_1/0_Brenau_2

New Line.l(r:p2udm9767-p2udt2826lv) Units=km Length=0.00995436 bus1=p2udt2826lv.1.2 bus2=p2udm9767.1.2 switch=n enabled=y phases=2 Linecode=1P_UG_AL_4/0_Sweetbriar_2

New Line.l(r:p2udt3133lv-p2ulv45320) Units=km Length=0.0105897 bus1=p2udt3133lv.1.2 bus2=p2ulv45320.1.2 switch=n enabled=y phases=2 Linecode=1P_UG_AL_1/0_Brenau_2

New Line.l(r:p2udm10751-p2ulv6844) Units=km Length=0.0111171 bus1=p2udm10751.1.2 bus2=p2ulv6844.1.2 switch=n enabled=y phases=2 Linecode=1P_UG_AL_1/0_Brenau_2

New Line.l(r:p2udm10751-p2ulv15561) Units=km Length=0.0104878 bus1=p2udm10751.1.2 bus2=p2ulv15561.1.2 switch=n enabled=y phases=2 Linecode=1P_UG_AL_1/0_Brenau_2

New Line.l(r:p2udm10754-p2ulv45315) Units=km Length=0.00934298 bus1=p2udm10754.1.2 bus2=p2ulv45315.1.2 switch=n enabled=y phases=2 Linecode=1P_UG_AL_1/0_Brenau_2

New Line.l(r:p2udm10751-p2udm10754) Units=km Length=0.009642 bus1=p2udm10751.1.2 bus2=p2udm10754.1.2 switch=n enabled=y phases=2 Linecode=1P_UG_AL_1/0_Brenau_2

New Line.l(r:p2udm10751-p2udt3133lv) Units=km Length=0.00965022 bus1=p2udt3133lv.1.2 bus2=p2udm10751.1.2 switch=n enabled=y phases=2 Linecode=1P_UG_AL_4/0_Sweetbriar_2

New Line.l(r:p2udm10752-p2ulv15558) Units=km Length=0.0143897 bus1=p2udm10752.1.2 bus2=p2ulv15558.1.2 switch=n enabled=y phases=2 Linecode=1P_UG_AL_1/0_Brenau_2

New Line.l(r:p2udm10755-p2ulv45319) Units=km Length=0.0101261 bus1=p2udm10755.1.2 bus2=p2ulv45319.1.2 switch=n enabled=y phases=2 Linecode=1P_UG_AL_1/0_Brenau_2

New Line.l(r:p2udm10752-p2udm10755) Units=km Length=0.009651870000000002 bus1=p2udm10752.1.2 bus2=p2udm10755.1.2 switch=n enabled=y phases=2 Linecode=1P_UG_AL_1/0_Brenau_2

New Line.l(r:p2udm10752-p2udt3133lv) Units=km Length=0.00964036 bus1=p2udt3133lv.1.2 bus2=p2udm10752.1.2 switch=n enabled=y phases=2 Linecode=1P_UG_AL_1/0_Brenau_2

New Line.l(r:p2udt3634lv-p2ulv20173) Units=km Length=0.0139637 bus1=p2udt3634lv.1.2 bus2=p2ulv20173.1.2 switch=n enabled=y phases=2 Linecode=1P_UG_AL_1/0_Brenau_2

New Line.l(r:p2udm12323-p2ulv20171) Units=km Length=0.00913337 bus1=p2udm12323.1.2 bus2=p2ulv20171.1.2 switch=n enabled=y phases=2 Linecode=1P_UG_AL_1/0_Brenau_2

New Line.l(r:p2udm12323-p2ulv20172) Units=km Length=0.013764 bus1=p2udm12323.1.2 bus2=p2ulv20172.1.2 switch=n enabled=y phases=2 Linecode=1P_UG_AL_1/0_Brenau_2

New Line.l(r:p2udm12328-p2ulv42011) Units=km Length=0.00992549 bus1=p2udm12328.1.2 bus2=p2ulv42011.1.2 switch=n enabled=y phases=2 Linecode=1P_UG_AL_1/0_Brenau_2

New Line.l(r:p2udm12323-p2udm12328) Units=km Length=0.00840572 bus1=p2udm12323.1.2 bus2=p2udm12328.1.2 switch=n enabled=y phases=2 Linecode=1P_UG_AL_1/0_Brenau_2

New Line.l(r:p2udm12323-p2udt3634lv) Units=km Length=0.00841559 bus1=p2udt3634lv.1.2 bus2=p2udm12323.1.2 switch=n enabled=y phases=2 Linecode=1P_UG_AL_4/0_Sweetbriar_2

New Line.l(r:p2udm12326-p2ulv20174) Units=km Length=0.00856085 bus1=p2udm12326.1.2 bus2=p2ulv20174.1.2 switch=n enabled=y phases=2 Linecode=1P_UG_AL_1/0_Brenau_2

New Line.l(r:p2udm12320-p2ulv8036) Units=km Length=0.0326457 bus1=p2udm12320.1.2 bus2=p2ulv8036.1.2 switch=n enabled=y phases=2 Linecode=1P_UG_AL_1/0_Brenau_2

New Line.l(r:p2udm12320-p2ulv20175) Units=km Length=0.00884604 bus1=p2udm12320.1.2 bus2=p2ulv20175.1.2 switch=n enabled=y phases=2 Linecode=1P_UG_AL_1/0_Brenau_2

New Line.l(r:p2udm12320-p2udm12326) Units=km Length=0.00882001 bus1=p2udm12326.1.2 bus2=p2udm12320.1.2 switch=n enabled=y phases=2 Linecode=1P_UG_AL_1/0_Brenau_2

New Line.l(r:p2udm12321-p2ulv18715) Units=km Length=0.0048006 bus1=p2udm12321.1.2 bus2=p2ulv18715.1.2 switch=n enabled=y phases=2 Linecode=1P_UG_AL_1/0_Brenau_2

New Line.l(r:p2udm12321-p2ulv18728) Units=km Length=0.004524790000000001 bus1=p2udm12321.1.2 bus2=p2ulv18728.1.2 switch=n enabled=y phases=2 Linecode=1P_UG_AL_1/0_Brenau_2

New Line.l(r:p2udm12321-p2udm12326) Units=km Length=0.00977188 bus1=p2udm12326.1.2 bus2=p2udm12321.1.2 switch=n enabled=y phases=2 Linecode=1P_UG_AL_1/0_Brenau_2

New Line.l(r:p2udm12326-p2udt3634lv) Units=km Length=0.00840572 bus1=p2udt3634lv.1.2 bus2=p2udm12326.1.2 switch=n enabled=y phases=2 Linecode=1P_UG_AL_4/0_Sweetbriar_2

New Line.l(r:p2udt3666lv-p2ulv13627) Units=km Length=0.0154024 bus1=p2udt3666lv.1.2 bus2=p2ulv13627.1.2 switch=n enabled=y phases=2 Linecode=1P_UG_AL_1/0_Brenau_2

New Line.l(r:p2udm12459-p2ulv8092) Units=km Length=0.0180017 bus1=p2udm12459.1.2 bus2=p2ulv8092.1.2 switch=n enabled=y phases=2 Linecode=1P_UG_AL_1/0_Brenau_2

New Line.l(r:p2udm12459-p2ulv17460) Units=km Length=0.0101331 bus1=p2udm12459.1.2 bus2=p2ulv17460.1.2 switch=n enabled=y phases=2 Linecode=1P_UG_AL_1/0_Brenau_2

New Line.l(r:p2udm12459-p2udt3666lv) Units=km Length=0.00991326 bus1=p2udt3666lv.1.2 bus2=p2udm12459.1.2 switch=n enabled=y phases=2 Linecode=1P_UG_AL_1/0_Brenau_2

New Line.l(r:p2udm12460-p2ulv13626) Units=km Length=0.0168352 bus1=p2udm12460.1.2 bus2=p2ulv13626.1.2 switch=n enabled=y phases=2 Linecode=1P_UG_AL_1/0_Brenau_2

New Line.l(r:p2udm12460-p2ulv17461) Units=km Length=0.00965324 bus1=p2udm12460.1.2 bus2=p2ulv17461.1.2 switch=n enabled=y phases=2 Linecode=1P_UG_AL_1/0_Brenau_2

New Line.l(r:p2udm12464-p2ulv45321) Units=km Length=0.0091503 bus1=p2udm12464.1.2 bus2=p2ulv45321.1.2 switch=n enabled=y phases=2 Linecode=1P_UG_AL_4/0_Sweetbriar_2

New Line.l(r:p2udm12460-p2udm12464) Units=km Length=0.0198183 bus1=p2udm12460.1.2 bus2=p2udm12464.1.2 switch=n enabled=y phases=2 Linecode=1P_UG_AL_4/0_Sweetbriar_2

New Line.l(r:p2udm12460-p2udt3666lv) Units=km Length=0.0099149 bus1=p2udt3666lv.1.2 bus2=p2udm12460.1.2 switch=n enabled=y phases=2 Linecode=1P_UG_AL_4/0_Sweetbriar_2

New Line.l(r:p2udt3693lv-p2ulv20179) Units=km Length=0.013021 bus1=p2udt3693lv.1.2 bus2=p2ulv20179.1.2 switch=n enabled=y phases=2 Linecode=1P_UG_AL_1/0_Brenau_2

New Line.l(r:p2udt3693lv-p2ulv20468) Units=km Length=0.0414324 bus1=p2udt3693lv.1.2 bus2=p2ulv20468.1.2 switch=n enabled=y phases=2 Linecode=1P_UG_AL_1/0_Brenau_2

New Line.l(r:p2udm12559-p2ulv8143) Units=km Length=0.0346851 bus1=p2udm12559.1.2 bus2=p2ulv8143.1.2 switch=n enabled=y phases=2 Linecode=1P_UG_AL_1/0_Brenau_2

New Line.l(r:p2udm12559-p2ulv20178) Units=km Length=0.0107576 bus1=p2udm12559.1.2 bus2=p2ulv20178.1.2 switch=n enabled=y phases=2 Linecode=1P_UG_AL_1/0_Brenau_2

New Line.l(r:p2udm12559-p2udt3693lv) Units=km Length=0.00945788 bus1=p2udt3693lv.1.2 bus2=p2udm12559.1.2 switch=n enabled=y phases=2 Linecode=1P_UG_AL_2/0_Converse_2
