New Load.load_p2ulv8_1 conn=wye bus1=p2ulv8.1 kV=0.12 Vminpu=0.8 Vmaxpu=1.2 model=1 kW=17.457561496943182 kvar=2.7648054103183033 Phases=1 yearly=res_kw_9927_pu

New Load.load_p2ulv8_2 conn=wye bus1=p2ulv8.2 kV=0.12 Vminpu=0.8 Vmaxpu=1.2 model=1 kW=17.457561496943182 kvar=2.7648054103183033 Phases=1 yearly=res_kw_9927_pu

New Load.load_p2ulv1334_1 conn=wye bus1=p2ulv1334.1 kV=0.12 Vminpu=0.8 Vmaxpu=1.2 model=1 kW=5.193650991228419 kvar=1.7053045316935516 Phases=1 yearly=res_kw_8152_pu

New Load.load_p2ulv1334_2 conn=wye bus1=p2ulv1334.2 kV=0.12 Vminpu=0.8 Vmaxpu=1.2 model=1 kW=5.193650991228419 kvar=1.7053045316935516 Phases=1 yearly=res_kw_8152_pu

New Load.load_p2ulv1350 conn=wye bus1=p2ulv1350.1.2.3 kV=0.48 Vminpu=0.8 Vmaxpu=1.2 model=1 kW=65.4882950082963 kvar=17.935683347028995 Phases=3 yearly=com_kw_39371_pu

New Load.load_p2ulv1398_1 conn=wye bus1=p2ulv1398.1 kV=0.12 Vminpu=0.8 Vmaxpu=1.2 model=1 kW=5.344611420738238 kvar=1.2420904916308932 Phases=1 yearly=res_kw_892_pu

New Load.load_p2ulv1398_2 conn=wye bus1=p2ulv1398.2 kV=0.12 Vminpu=0.8 Vmaxpu=1.2 model=1 kW=5.344611420738238 kvar=1.2420904916308932 Phases=1 yearly=res_kw_892_pu

New Load.load_p2ulv2398_1 conn=wye bus1=p2ulv2398.1 kV=0.12 Vminpu=0.8 Vmaxpu=1.2 model=1 kW=1.2872959945163445 kvar=0.7045975538044593 Phases=1 yearly=res_kw_3244_pu

New Load.load_p2ulv2398_2 conn=wye bus1=p2ulv2398.2 kV=0.12 Vminpu=0.8 Vmaxpu=1.2 model=1 kW=1.2872959945163445 kvar=0.7045975538044593 Phases=1 yearly=res_kw_3244_pu

New Load.load_p2ulv2456_1 conn=wye bus1=p2ulv2456.1 kV=0.12 Vminpu=0.8 Vmaxpu=1.2 model=1 kW=12.051137035428619 kvar=2.66254906474734 Phases=1 yearly=res_kw_1525_pu

New Load.load_p2ulv2456_2 conn=wye bus1=p2ulv2456.2 kV=0.12 Vminpu=0.8 Vmaxpu=1.2 model=1 kW=12.051137035428619 kvar=2.66254906474734 Phases=1 yearly=res_kw_1525_pu

New Load.load_p2ulv2475_1 conn=wye bus1=p2ulv2475.1 kV=0.12 Vminpu=0.8 Vmaxpu=1.2 model=1 kW=27.763601203237986 kvar=4.514884216914319 Phases=1 yearly=res_kw_11946_pu

New Load.load_p2ulv2475_2 conn=wye bus1=p2ulv2475.2 kV=0.12 Vminpu=0.8 Vmaxpu=1.2 model=1 kW=27.763601203237986 kvar=4.514884216914319 Phases=1 yearly=res_kw_11946_pu

New Load.load_p2ulv2497_1 conn=wye bus1=p2ulv2497.1 kV=0.12 Vminpu=0.8 Vmaxpu=1.2 model=1 kW=3.622195801749729 kvar=1.1191382775825767 Phases=1 yearly=res_kw_10786_pu

New Load.load_p2ulv2497_2 conn=wye bus1=p2ulv2497.2 kV=0.12 Vminpu=0.8 Vmaxpu=1.2 model=1 kW=3.622195801749729 kvar=1.1191382775825767 Phases=1 yearly=res_kw_10786_pu

New Load.load_p2ulv2514_1 conn=wye bus1=p2ulv2514.1 kV=0.12 Vminpu=0.8 Vmaxpu=1.2 model=1 kW=4.189941515419322 kvar=1.043990667394076 Phases=1 yearly=res_kw_14528_pu

New Load.load_p2ulv2514_2 conn=wye bus1=p2ulv2514.2 kV=0.12 Vminpu=0.8 Vmaxpu=1.2 model=1 kW=4.189941515419322 kvar=1.043990667394076 Phases=1 yearly=res_kw_14528_pu

New Load.load_p2ulv2561 conn=wye bus1=p2ulv2561.1.2.3 kV=0.48 Vminpu=0.8 Vmaxpu=1.2 model=1 kW=42.05730255187551 kvar=7.110585410082197 Phases=3 yearly=res_kw_14580_pu

New Load.load_p2ulv3459_1 conn=wye bus1=p2ulv3459.1 kV=0.12 Vminpu=0.8 Vmaxpu=1.2 model=1 kW=11.495920496244223 kvar=4.518490967551786 Phases=1 yearly=res_kw_2567_pu

New Load.load_p2ulv3459_2 conn=wye bus1=p2ulv3459.2 kV=0.12 Vminpu=0.8 Vmaxpu=1.2 model=1 kW=11.495920496244223 kvar=4.518490967551786 Phases=1 yearly=res_kw_2567_pu

New Load.load_p2ulv3466_1 conn=wye bus1=p2ulv3466.1 kV=0.12 Vminpu=0.8 Vmaxpu=1.2 model=1 kW=3.743714563680269 kvar=0.9833672592825902 Phases=1 yearly=res_kw_2893_pu

New Load.load_p2ulv3466_2 conn=wye bus1=p2ulv3466.2 kV=0.12 Vminpu=0.8 Vmaxpu=1.2 model=1 kW=3.743714563680269 kvar=0.9833672592825902 Phases=1 yearly=res_kw_2893_pu

New Load.load_p2ulv3538_1 conn=wye bus1=p2ulv3538.1 kV=0.12 Vminpu=0.8 Vmaxpu=1.2 model=1 kW=8.678399331349102 kvar=5.446652475255383 Phases=1 yearly=res_kw_11804_pu

New Load.load_p2ulv3538_2 conn=wye bus1=p2ulv3538.2 kV=0.12 Vminpu=0.8 Vmaxpu=1.2 model=1 kW=8.678399331349102 kvar=5.446652475255383 Phases=1 yearly=res_kw_11804_pu

New Load.load_p2ulv3549_1 conn=wye bus1=p2ulv3549.1 kV=0.12 Vminpu=0.8 Vmaxpu=1.2 model=1 kW=7.308402525147498 kvar=2.202969592332133 Phases=1 yearly=res_kw_14465_pu

New Load.load_p2ulv3549_2 conn=wye bus1=p2ulv3549.2 kV=0.12 Vminpu=0.8 Vmaxpu=1.2 model=1 kW=7.308402525147498 kvar=2.202969592332133 Phases=1 yearly=res_kw_14465_pu

New Load.load_p2ulv3572_1 conn=wye bus1=p2ulv3572.1 kV=0.12 Vminpu=0.8 Vmaxpu=1.2 model=1 kW=2.3059571303462074 kvar=0.46124077406396896 Phases=1 yearly=res_kw_7887_pu

New Load.load_p2ulv3572_2 conn=wye bus1=p2ulv3572.2 kV=0.12 Vminpu=0.8 Vmaxpu=1.2 model=1 kW=2.3059571303462074 kvar=0.46124077406396896 Phases=1 yearly=res_kw_7887_pu

New Load.load_p2ulv3606_1 conn=wye bus1=p2ulv3606.1 kV=0.12 Vminpu=0.8 Vmaxpu=1.2 model=1 kW=1.583748468401239 kvar=0.7174784954944635 Phases=1 yearly=res_kw_11296_pu

New Load.load_p2ulv3606_2 conn=wye bus1=p2ulv3606.2 kV=0.12 Vminpu=0.8 Vmaxpu=1.2 model=1 kW=1.583748468401239 kvar=0.7174784954944635 Phases=1 yearly=res_kw_11296_pu

New Load.load_p2ulv3635 conn=wye bus1=p2ulv3635.1.2.3 kV=0.48 Vminpu=0.8 Vmaxpu=1.2 model=1 kW=78.79517032153932 kvar=25.03611953702035 Phases=3 yearly=res_kw_4202_pu

New Load.load_p2ulv3729_1 conn=wye bus1=p2ulv3729.1 kV=0.12 Vminpu=0.8 Vmaxpu=1.2 model=1 kW=4.2351146418288215 kvar=1.5416088719538104 Phases=1 yearly=res_kw_10296_pu

New Load.load_p2ulv3729_2 conn=wye bus1=p2ulv3729.2 kV=0.12 Vminpu=0.8 Vmaxpu=1.2 model=1 kW=4.2351146418288215 kvar=1.5416088719538104 Phases=1 yearly=res_kw_10296_pu

New Load.load_p2ulv3749 conn=wye bus1=p2ulv3749.1.2.3 kV=0.48 Vminpu=0.8 Vmaxpu=1.2 model=1 kW=33.23356441742974 kvar=5.964899485639537 Phases=3 yearly=res_kw_3465_pu

New Load.load_p2ulv3765_1 conn=wye bus1=p2ulv3765.1 kV=0.12 Vminpu=0.8 Vmaxpu=1.2 model=1 kW=7.070989603958997 kvar=1.583417062137877 Phases=1 yearly=res_kw_13375_pu

New Load.load_p2ulv3765_2 conn=wye bus1=p2ulv3765.2 kV=0.12 Vminpu=0.8 Vmaxpu=1.2 model=1 kW=7.070989603958997 kvar=1.583417062137877 Phases=1 yearly=res_kw_13375_pu

New Load.load_p2ulv3771_1 conn=wye bus1=p2ulv3771.1 kV=0.12 Vminpu=0.8 Vmaxpu=1.2 model=1 kW=3.6849315736247465 kvar=0.26435587266661026 Phases=1 yearly=com_kw_29342_pu

New Load.load_p2ulv3771_2 conn=wye bus1=p2ulv3771.2 kV=0.12 Vminpu=0.8 Vmaxpu=1.2 model=1 kW=3.6849315736247465 kvar=0.26435587266661026 Phases=1 yearly=com_kw_29342_pu

New Load.load_p2ulv4825_1 conn=wye bus1=p2ulv4825.1 kV=0.12 Vminpu=0.8 Vmaxpu=1.2 model=1 kW=7.217170807348211 kvar=1.8435037825163323 Phases=1 yearly=res_kw_1601_pu

New Load.load_p2ulv4825_2 conn=wye bus1=p2ulv4825.2 kV=0.12 Vminpu=0.8 Vmaxpu=1.2 model=1 kW=7.217170807348211 kvar=1.8435037825163323 Phases=1 yearly=res_kw_1601_pu

New Load.load_p2ulv5692 conn=wye bus1=p2ulv5692.1.2.3 kV=0.48 Vminpu=0.8 Vmaxpu=1.2 model=1 kW=18.348488432754806 kvar=10.699704645961573 Phases=3 yearly=res_kw_5267_pu

New Load.load_p2ulv5802_1 conn=wye bus1=p2ulv5802.1 kV=0.12 Vminpu=0.8 Vmaxpu=1.2 model=1 kW=6.715628633589498 kvar=2.309412963433577 Phases=1 yearly=res_kw_1826_pu

New Load.load_p2ulv5802_2 conn=wye bus1=p2ulv5802.2 kV=0.12 Vminpu=0.8 Vmaxpu=1.2 model=1 kW=6.715628633589498 kvar=2.309412963433577 Phases=1 yearly=res_kw_1826_pu

New Load.load_p2ulv5961_1 conn=wye bus1=p2ulv5961.1 kV=0.12 Vminpu=0.8 Vmaxpu=1.2 model=1 kW=5.272239284251449 kvar=2.4378960598657486 Phases=1 yearly=res_kw_5863_pu

New Load.load_p2ulv5961_2 conn=wye bus1=p2ulv5961.2 kV=0.12 Vminpu=0.8 Vmaxpu=1.2 model=1 kW=5.272239284251449 kvar=2.4378960598657486 Phases=1 yearly=res_kw_5863_pu

New Load.load_p2ulv6844_1 conn=wye bus1=p2ulv6844.1 kV=0.12 Vminpu=0.8 Vmaxpu=1.2 model=1 kW=4.39534851752012 kvar=1.119108282214209 Phases=1 yearly=res_kw_4459_pu

New Load.load_p2ulv6844_2 conn=wye bus1=p2ulv6844.2 kV=0.12 Vminpu=0.8 Vmaxpu=1.2 model=1 kW=4.39534851752012 kvar=1.119108282214209 Phases=1 yearly=res_kw_4459_pu

New Load.load_p2ulv6953_1 conn=wye bus1=p2ulv6953.1 kV=0.12 Vminpu=0.8 Vmaxpu=1.2 model=1 kW=10.365085146994144 kvar=2.3584667885946176 Phases=1 yearly=res_kw_4592_pu

New Load.load_p2ulv6953_2 conn=wye bus1=p2ulv6953.2 kV=0.12 Vminpu=0.8 Vmaxpu=1.2 model=1 kW=10.365085146994144 kvar=2.3584667885946176 Phases=1 yearly=res_kw_4592_pu

New Load.load_p2ulv7957 conn=wye bus1=p2ulv7957.1.2.3 kV=0.48 Vminpu=0.8 Vmaxpu=1.2 model=1 kW=132.94171589714094 kvar=16.68416458143931 Phases=3 yearly=com_kw_16510_pu

New Load.load_p2ulv7966 conn=wye bus1=p2ulv7966.1.2.3 kV=0.48 Vminpu=0.8 Vmaxpu=1.2 model=1 kW=41.085627785463096 kvar=11.330598210841163 Phases=3 yearly=res_kw_6496_pu

New Load.load_p2ulv8036_1 conn=wye bus1=p2ulv8036.1 kV=0.12 Vminpu=0.8 Vmaxpu=1.2 model=1 kW=1.9148098772774416 kvar=0.5101847188999215 Phases=1 yearly=res_kw_6387_pu

New Load.load_p2ulv8036_2 conn=wye bus1=p2ulv8036.2 kV=0.12 Vminpu=0.8 Vmaxpu=1.2 model=1 kW=1.9148098772774416 kvar=0.5101847188999215 Phases=1 yearly=res_kw_6387_pu

New Load.load_p2ulv8092_1 conn=wye bus1=p2ulv8092.1 kV=0.12 Vminpu=0.8 Vmaxpu=1.2 model=1 kW=4.150751334896084 kvar=1.054934341503966 Phases=1 yearly=res_kw_10867_pu

New Load.load_p2ulv8092_2 conn=wye bus1=p2ulv8092.2 kV=0.12 Vminpu=0.8 Vmaxpu=1.2 model=1 kW=4.150751334896084 kvar=1.054934341503966 Phases=1 yearly=res_kw_10867_pu

New Load.load_p2ulv8136 conn=wye bus1=p2ulv8136.1.2.3 kV=0.48 Vminpu=0.8 Vmaxpu=1.2 model=1 kW=72.41318687623551 kvar=31.543442696247848 Phases=3 yearly=res_kw_11379_pu

New Load.load_p2ulv8143_1 conn=wye bus1=p2ulv8143.1 kV=0.12 Vminpu=0.8 Vmaxpu=1.2 model=1 kW=19.90072890369833 kvar=3.2831810396753625 Phases=1 yearly=res_kw_13657_pu

New Load.load_p2ulv8143_2 conn=wye bus1=p2ulv8143.2 kV=0.12 Vminpu=0.8 Vmaxpu=1.2 model=1 kW=19.90072890369833 kvar=3.2831810396753625 Phases=1 yearly=res_kw_13657_pu

New Load.load_p2ulv8194_1 conn=wye bus1=p2ulv8194.1 kV=0.12 Vminpu=0.8 Vmaxpu=1.2 model=1 kW=10.73760931127076 kvar=1.9176296456961095 Phases=1 yearly=res_kw_3240_pu

New Load.load_p2ulv8194_2 conn=wye bus1=p2ulv8194.2 kV=0.12 Vminpu=0.8 Vmaxpu=1.2 model=1 kW=10.73760931127076 kvar=1.9176296456961095 Phases=1 yearly=res_kw_3240_pu

New Load.load_p2ulv8207_1 conn=wye bus1=p2ulv8207.1 kV=0.12 Vminpu=0.8 Vmaxpu=1.2 model=1 kW=17.077547924284644 kvar=4.8839888061432255 Phases=1 yearly=res_kw_60_pu

New Load.load_p2ulv8207_2 conn=wye bus1=p2ulv8207.2 kV=0.12 Vminpu=0.8 Vmaxpu=1.2 model=1 kW=17.077547924284644 kvar=4.8839888061432255 Phases=1 yearly=res_kw_60_pu

New Load.load_p2ulv9364_1 conn=wye bus1=p2ulv9364.1 kV=0.12 Vminpu=0.8 Vmaxpu=1.2 model=1 kW=25.52621674217319 kvar=4.20689121056145 Phases=1 yearly=res_kw_3674_pu

New Load.load_p2ulv9364_2 conn=wye bus1=p2ulv9364.2 kV=0.12 Vminpu=0.8 Vmaxpu=1.2 model=1 kW=25.52621674217319 kvar=4.20689121056145 Phases=1 yearly=res_kw_3674_pu

New Load.load_p2ulv9365_1 conn=wye bus1=p2ulv9365.1 kV=0.12 Vminpu=0.8 Vmaxpu=1.2 model=1 kW=5.385772821478587 kvar=1.6009172710699977 Phases=1 yearly=com_kw_20964_pu

New Load.load_p2ulv9365_2 conn=wye bus1=p2ulv9365.2 kV=0.12 Vminpu=0.8 Vmaxpu=1.2 model=1 kW=5.385772821478587 kvar=1.6009172710699977 Phases=1 yearly=com_kw_20964_pu

New Load.load_p2ulv9366_1 conn=wye bus1=p2ulv9365.1 kV=0.12 Vminpu=0.8 Vmaxpu=1.2 model=1 kW=2.444264033838406 kvar=0.6682307283819275 Phases=1 yearly=res_kw_11003_pu

New Load.load_p2ulv9366_2 conn=wye bus1=p2ulv9365.2 kV=0.12 Vminpu=0.8 Vmaxpu=1.2 model=1 kW=2.444264033838406 kvar=0.6682307283819275 Phases=1 yearly=res_kw_11003_pu

New Load.load_p2ulv9367_1 conn=wye bus1=p2ulv9367.1 kV=0.12 Vminpu=0.8 Vmaxpu=1.2 model=1 kW=3.025577912376512 kvar=0.6479907691217454 Phases=1 yearly=com_kw_35494_pu

New Load.load_p2ulv9367_2 conn=wye bus1=p2ulv9367.2 kV=0.12 Vminpu=0.8 Vmaxpu=1.2 model=1 kW=3.025577912376512 kvar=0.6479907691217454 Phases=1 yearly=com_kw_35494_pu

New Load.load_p2ulv9368_1 conn=wye bus1=p2ulv9368.1 kV=0.12 Vminpu=0.8 Vmaxpu=1.2 model=1 kW=2.848181227821289 kvar=0.7500613200028317 Phases=1 yearly=com_kw_41563_pu

New Load.load_p2ulv9368_2 conn=wye bus1=p2ulv9368.2 kV=0.12 Vminpu=0.8 Vmaxpu=1.2 model=1 kW=2.848181227821289 kvar=0.7500613200028317 Phases=1 yearly=com_kw_41563_pu

New Load.load_p2ulv9374_1 conn=wye bus1=p2ulv9374.1 kV=0.12 Vminpu=0.8 Vmaxpu=1.2 model=1 kW=1.9416469465210624 kvar=0.6919056293615719 Phases=1 yearly=res_kw_1061_pu

New Load.load_p2ulv9374_2 conn=wye bus1=p2ulv9374.2 kV=0.12 Vminpu=0.8 Vmaxpu=1.2 model=1 kW=1.9416469465210624 kvar=0.6919056293615719 Phases=1 yearly=res_kw_1061_pu

New Load.load_p2ulv9379 conn=wye bus1=p2ulv9379.1.2.3 kV=0.48 Vminpu=0.8 Vmaxpu=1.2 model=1 kW=44.559531386155 kvar=10.117884406779549 Phases=3 yearly=res_kw_3304_pu

New Load.load_p2ulv9380_1 conn=wye bus1=p2ulv9380.1 kV=0.12 Vminpu=0.8 Vmaxpu=1.2 model=1 kW=11.57624852327526 kvar=1.9064966908089227 Phases=1 yearly=res_kw_2180_pu

New Load.load_p2ulv9380_2 conn=wye bus1=p2ulv9380.2 kV=0.12 Vminpu=0.8 Vmaxpu=1.2 model=1 kW=11.57624852327526 kvar=1.9064966908089227 Phases=1 yearly=res_kw_2180_pu

New Load.load_p2ulv9381 conn=wye bus1=p2ulv9381.1.2.3 kV=0.48 Vminpu=0.8 Vmaxpu=1.2 model=1 kW=60.24405644278904 kvar=2.508924038019148 Phases=3 yearly=com_kw_2732_pu

New Load.load_p2ulv9382_1 conn=wye bus1=p2ulv9382.1 kV=0.12 Vminpu=0.8 Vmaxpu=1.2 model=1 kW=10.758537384867397 kvar=3.462290874454354 Phases=1 yearly=res_kw_15102_pu

New Load.load_p2ulv9382_2 conn=wye bus1=p2ulv9382.2 kV=0.12 Vminpu=0.8 Vmaxpu=1.2 model=1 kW=10.758537384867397 kvar=3.462290874454354 Phases=1 yearly=res_kw_15102_pu

New Load.load_p2ulv9383 conn=wye bus1=p2ulv9383.1.2.3 kV=0.48 Vminpu=0.8 Vmaxpu=1.2 model=1 kW=29.903046757563782 kvar=8.917154846334366 Phases=3 yearly=com_kw_35609_pu

New Load.load_p2ulv9384_1 conn=wye bus1=p2ulv9382.1 kV=0.12 Vminpu=0.8 Vmaxpu=1.2 model=1 kW=11.393221281413462 kvar=4.971916470157702 Phases=1 yearly=res_kw_13663_pu

New Load.load_p2ulv9384_2 conn=wye bus1=p2ulv9382.2 kV=0.12 Vminpu=0.8 Vmaxpu=1.2 model=1 kW=11.393221281413462 kvar=4.971916470157702 Phases=1 yearly=res_kw_13663_pu

New Load.load_p2ulv9772_1 conn=wye bus1=p2ulv9772.1 kV=0.12 Vminpu=0.8 Vmaxpu=1.2 model=1 kW=13.522982686223918 kvar=1.769032734889681 Phases=1 yearly=res_kw_12977_pu

New Load.load_p2ulv9772_2 conn=wye bus1=p2ulv9772.2 kV=0.12 Vminpu=0.8 Vmaxpu=1.2 model=1 kW=13.522982686223918 kvar=1.769032734889681 Phases=1 yearly=res_kw_12977_pu

New Load.load_p2ulv9837_1 conn=wye bus1=p2ulv9837.1 kV=0.12 Vminpu=0.8 Vmaxpu=1.2 model=1 kW=10.75227663329546 kvar=0.5418493147802936 Phases=1 yearly=res_kw_13542_pu

New Load.load_p2ulv9837_2 conn=wye bus1=p2ulv9837.2 kV=0.12 Vminpu=0.8 Vmaxpu=1.2 model=1 kW=10.75227663329546 kvar=0.5418493147802936 Phases=1 yearly=res_kw_13542_pu

New Load.load_p2ulv9847_1 conn=wye bus1=p2ulv9847.1 kV=0.12 Vminpu=0.8 Vmaxpu=1.2 model=1 kW=9.074805576277466 kvar=1.8421110117949568 Phases=1 yearly=res_kw_13363_pu

New Load.load_p2ulv9847_2 conn=wye bus1=p2ulv9847.2 kV=0.12 Vminpu=0.8 Vmaxpu=1.2 model=1 kW=9.074805576277466 kvar=1.8421110117949568 Phases=1 yearly=res_kw_13363_pu

New Load.load_p2ulv11268_1 conn=wye bus1=p2ulv11268.1 kV=0.12 Vminpu=0.8 Vmaxpu=1.2 model=1 kW=13.165306237601106 kvar=2.9608645801323394 Phases=1 yearly=res_kw_2511_pu

New Load.load_p2ulv11268_2 conn=wye bus1=p2ulv11268.2 kV=0.12 Vminpu=0.8 Vmaxpu=1.2 model=1 kW=13.165306237601106 kvar=2.9608645801323394 Phases=1 yearly=res_kw_2511_pu

New Load.load_p2ulv13624_1 conn=wye bus1=p2ulv13624.1 kV=0.12 Vminpu=0.8 Vmaxpu=1.2 model=1 kW=6.066192848168223 kvar=2.152300061233811 Phases=1 yearly=res_kw_12788_pu

New Load.load_p2ulv13624_2 conn=wye bus1=p2ulv13624.2 kV=0.12 Vminpu=0.8 Vmaxpu=1.2 model=1 kW=6.066192848168223 kvar=2.152300061233811 Phases=1 yearly=res_kw_12788_pu

New Load.load_p2ulv13625_1 conn=wye bus1=p2ulv13624.1 kV=0.12 Vminpu=0.8 Vmaxpu=1.2 model=1 kW=7.63804807733399 kvar=2.638371564480624 Phases=1 yearly=res_kw_5439_pu

New Load.load_p2ulv13625_2 conn=wye bus1=p2ulv13624.2 kV=0.12 Vminpu=0.8 Vmaxpu=1.2 model=1 kW=7.63804807733399 kvar=2.638371564480624 Phases=1 yearly=res_kw_5439_pu

New Load.load_p2ulv13626_1 conn=wye bus1=p2ulv13626.1 kV=0.12 Vminpu=0.8 Vmaxpu=1.2 model=1 kW=4.69722938823788 kvar=0.6546008506549251 Phases=1 yearly=res_kw_12125_pu

New Load.load_p2ulv13626_2 conn=wye bus1=p2ulv13626.2 kV=0.12 Vminpu=0.8 Vmaxpu=1.2 model=1 kW=4.69722938823788 kvar=0.6546008506549251 Phases=1 yearly=res_kw_12125_pu

New Load.load_p2ulv13627_1 conn=wye bus1=p2ulv13627.1 kV=0.12 Vminpu=0.8 Vmaxpu=1.2 model=1 kW=3.297417532176794 kvar=0.2780703813036578 Phases=1 yearly=res_kw_1657_pu

New Load.load_p2ulv13627_2 conn=wye bus1=p2ulv13627.2 kV=0.12 Vminpu=0.8 Vmaxpu=1.2 model=1 kW=3.297417532176794 kvar=0.2780703813036578 Phases=1 yearly=res_kw_1657_pu

New Load.load_p2ulv15340_1 conn=wye bus1=p2ulv15340.1 kV=0.12 Vminpu=0.8 Vmaxpu=1.2 model=1 kW=2.2534362298612294 kvar=0.8681512665229805 Phases=1 yearly=res_kw_10802_pu

New Load.load_p2ulv15340_2 conn=wye bus1=p2ulv15340.2 kV=0.12 Vminpu=0.8 Vmaxpu=1.2 model=1 kW=2.2534362298612294 kvar=0.8681512665229805 Phases=1 yearly=res_kw_10802_pu

New Load.load_p2ulv15341_1 conn=wye bus1=p2ulv15341.1 kV=0.12 Vminpu=0.8 Vmaxpu=1.2 model=1 kW=24.272997050232743 kvar=0.7788696496926448 Phases=1 yearly=res_kw_10300_pu

New Load.load_p2ulv15341_2 conn=wye bus1=p2ulv15341.2 kV=0.12 Vminpu=0.8 Vmaxpu=1.2 model=1 kW=24.272997050232743 kvar=0.7788696496926448 Phases=1 yearly=res_kw_10300_pu

New Load.load_p2ulv15342_1 conn=wye bus1=p2ulv15342.1 kV=0.12 Vminpu=0.8 Vmaxpu=1.2 model=1 kW=10.365085146994144 kvar=2.3584667885946176 Phases=1 yearly=res_kw_4592_pu

New Load.load_p2ulv15342_2 conn=wye bus1=p2ulv15342.2 kV=0.12 Vminpu=0.8 Vmaxpu=1.2 model=1 kW=10.365085146994144 kvar=2.3584667885946176 Phases=1 yearly=res_kw_4592_pu

New Load.load_p2ulv15558_1 conn=wye bus1=p2ulv15558.1 kV=0.12 Vminpu=0.8 Vmaxpu=1.2 model=1 kW=1.559471872734321 kvar=0.3594451711768375 Phases=1 yearly=res_kw_1727_pu

New Load.load_p2ulv15558_2 conn=wye bus1=p2ulv15558.2 kV=0.12 Vminpu=0.8 Vmaxpu=1.2 model=1 kW=1.559471872734321 kvar=0.3594451711768375 Phases=1 yearly=res_kw_1727_pu

New Load.load_p2ulv15559_1 conn=wye bus1=p2ulv15559.1 kV=0.12 Vminpu=0.8 Vmaxpu=1.2 model=1 kW=10.195185049604564 kvar=4.285461475500601 Phases=1 yearly=res_kw_14889_pu

New Load.load_p2ulv15559_2 conn=wye bus1=p2ulv15559.2 kV=0.12 Vminpu=0.8 Vmaxpu=1.2 model=1 kW=10.195185049604564 kvar=4.285461475500601 Phases=1 yearly=res_kw_14889_pu

New Load.load_p2ulv15560_1 conn=wye bus1=p2ulv15560.1 kV=0.12 Vminpu=0.8 Vmaxpu=1.2 model=1 kW=9.99302071008914 kvar=3.693538263860806 Phases=1 yearly=res_kw_7083_pu

New Load.load_p2ulv15560_2 conn=wye bus1=p2ulv15560.2 kV=0.12 Vminpu=0.8 Vmaxpu=1.2 model=1 kW=9.99302071008914 kvar=3.693538263860806 Phases=1 yearly=res_kw_7083_pu

New Load.load_p2ulv15561_1 conn=wye bus1=p2ulv15561.1 kV=0.12 Vminpu=0.8 Vmaxpu=1.2 model=1 kW=4.649329274745809 kvar=0.7638148765075456 Phases=1 yearly=res_kw_7653_pu

New Load.load_p2ulv15561_2 conn=wye bus1=p2ulv15561.2 kV=0.12 Vminpu=0.8 Vmaxpu=1.2 model=1 kW=4.649329274745809 kvar=0.7638148765075456 Phases=1 yearly=res_kw_7653_pu

New Load.load_p2ulv15562_1 conn=wye bus1=p2ulv15562.1 kV=0.12 Vminpu=0.8 Vmaxpu=1.2 model=1 kW=32.304407991574855 kvar=5.055719686826876 Phases=1 yearly=res_kw_5586_pu

New Load.load_p2ulv15562_2 conn=wye bus1=p2ulv15562.2 kV=0.12 Vminpu=0.8 Vmaxpu=1.2 model=1 kW=32.304407991574855 kvar=5.055719686826876 Phases=1 yearly=res_kw_5586_pu

New Load.load_p2ulv15563_1 conn=wye bus1=p2ulv15563.1 kV=0.12 Vminpu=0.8 Vmaxpu=1.2 model=1 kW=7.040247032422699 kvar=1.8954792339887225 Phases=1 yearly=res_kw_5151_pu

New Load.load_p2ulv15563_2 conn=wye bus1=p2ulv15563.2 kV=0.12 Vminpu=0.8 Vmaxpu=1.2 model=1 kW=7.040247032422699 kvar=1.8954792339887225 Phases=1 yearly=res_kw_5151_pu

New Load.load_p2ulv15564_1 conn=wye bus1=p2ulv15564.1 kV=0.12 Vminpu=0.8 Vmaxpu=1.2 model=1 kW=1.9165907488589344 kvar=0.688264377239707 Phases=1 yearly=res_kw_990_pu

New Load.load_p2ulv15564_2 conn=wye bus1=p2ulv15564.2 kV=0.12 Vminpu=0.8 Vmaxpu=1.2 model=1 kW=1.9165907488589344 kvar=0.688264377239707 Phases=1 yearly=res_kw_990_pu

New Load.load_p2ulv15565_1 conn=wye bus1=p2ulv15565.1 kV=0.12 Vminpu=0.8 Vmaxpu=1.2 model=1 kW=2.8434360368698237 kvar=1.0691901288257757 Phases=1 yearly=res_kw_9766_pu

New Load.load_p2ulv15565_2 conn=wye bus1=p2ulv15565.2 kV=0.12 Vminpu=0.8 Vmaxpu=1.2 model=1 kW=2.8434360368698237 kvar=1.0691901288257757 Phases=1 yearly=res_kw_9766_pu

New Load.load_p2ulv15566_1 conn=wye bus1=p2ulv15566.1 kV=0.12 Vminpu=0.8 Vmaxpu=1.2 model=1 kW=14.025344609414587 kvar=3.701863589566846 Phases=1 yearly=res_kw_6403_pu

New Load.load_p2ulv15566_2 conn=wye bus1=p2ulv15566.2 kV=0.12 Vminpu=0.8 Vmaxpu=1.2 model=1 kW=14.025344609414587 kvar=3.701863589566846 Phases=1 yearly=res_kw_6403_pu

New Load.load_p2ulv15567_1 conn=wye bus1=p2ulv15567.1 kV=0.12 Vminpu=0.8 Vmaxpu=1.2 model=1 kW=19.63905517368332 kvar=4.807598165332256 Phases=1 yearly=res_kw_8215_pu

New Load.load_p2ulv15567_2 conn=wye bus1=p2ulv15567.2 kV=0.12 Vminpu=0.8 Vmaxpu=1.2 model=1 kW=19.63905517368332 kvar=4.807598165332256 Phases=1 yearly=res_kw_8215_pu

New Load.load_p2ulv15568_1 conn=wye bus1=p2ulv15568.1 kV=0.12 Vminpu=0.8 Vmaxpu=1.2 model=1 kW=4.4720622948863955 kvar=1.8336007311314348 Phases=1 yearly=res_kw_10020_pu

New Load.load_p2ulv15568_2 conn=wye bus1=p2ulv15568.2 kV=0.12 Vminpu=0.8 Vmaxpu=1.2 model=1 kW=4.4720622948863955 kvar=1.8336007311314348 Phases=1 yearly=res_kw_10020_pu

New Load.load_p2ulv15569_1 conn=wye bus1=p2ulv15569.1 kV=0.12 Vminpu=0.8 Vmaxpu=1.2 model=1 kW=31.073978786042176 kvar=0.2630686571499085 Phases=1 yearly=res_kw_3700_pu

New Load.load_p2ulv15569_2 conn=wye bus1=p2ulv15569.2 kV=0.12 Vminpu=0.8 Vmaxpu=1.2 model=1 kW=31.073978786042176 kvar=0.2630686571499085 Phases=1 yearly=res_kw_3700_pu

New Load.load_p2ulv15570_1 conn=wye bus1=p2ulv15570.1 kV=0.12 Vminpu=0.8 Vmaxpu=1.2 model=1 kW=13.441338666983746 kvar=4.910734397533718 Phases=1 yearly=res_kw_12381_pu

New Load.load_p2ulv15570_2 conn=wye bus1=p2ulv15570.2 kV=0.12 Vminpu=0.8 Vmaxpu=1.2 model=1 kW=13.441338666983746 kvar=4.910734397533718 Phases=1 yearly=res_kw_12381_pu

New Load.load_p2ulv15571_1 conn=wye bus1=p2ulv15571.1 kV=0.12 Vminpu=0.8 Vmaxpu=1.2 model=1 kW=14.185230095909644 kvar=5.81926032754939 Phases=1 yearly=res_kw_14854_pu

New Load.load_p2ulv15571_2 conn=wye bus1=p2ulv15571.2 kV=0.12 Vminpu=0.8 Vmaxpu=1.2 model=1 kW=14.185230095909644 kvar=5.81926032754939 Phases=1 yearly=res_kw_14854_pu

New Load.load_p2ulv15572_1 conn=wye bus1=p2ulv15572.1 kV=0.12 Vminpu=0.8 Vmaxpu=1.2 model=1 kW=20.886370490691085 kvar=5.905134327689041 Phases=1 yearly=res_kw_10771_pu

New Load.load_p2ulv15572_2 conn=wye bus1=p2ulv15572.2 kV=0.12 Vminpu=0.8 Vmaxpu=1.2 model=1 kW=20.886370490691085 kvar=5.905134327689041 Phases=1 yearly=res_kw_10771_pu

New Load.load_p2ulv15573 conn=wye bus1=p2ulv15573.1.2.3 kV=0.48 Vminpu=0.8 Vmaxpu=1.2 model=1 kW=52.698038084330605 kvar=3.4793927327681886 Phases=3 yearly=res_kw_11660_pu

New Load.load_p2ulv15574 conn=wye bus1=p2ulv15574.1.2.3 kV=0.48 Vminpu=0.8 Vmaxpu=1.2 model=1 kW=45.721855067598845 kvar=8.511154740716357 Phases=3 yearly=res_kw_6540_pu

New Load.load_p2ulv15575_1 conn=wye bus1=p2ulv15575.1 kV=0.12 Vminpu=0.8 Vmaxpu=1.2 model=1 kW=2.7700054989404124 kvar=1.854813778827211 Phases=1 yearly=res_kw_1930_pu

New Load.load_p2ulv15575_2 conn=wye bus1=p2ulv15575.2 kV=0.12 Vminpu=0.8 Vmaxpu=1.2 model=1 kW=2.7700054989404124 kvar=1.854813778827211 Phases=1 yearly=res_kw_1930_pu

New Load.load_p2ulv15576_1 conn=wye bus1=p2ulv15575.1 kV=0.12 Vminpu=0.8 Vmaxpu=1.2 model=1 kW=9.804402501210426 kvar=0.672250029556065 Phases=1 yearly=res_kw_4825_pu

New Load.load_p2ulv15576_2 conn=wye bus1=p2ulv15575.2 kV=0.12 Vminpu=0.8 Vmaxpu=1.2 model=1 kW=9.804402501210426 kvar=0.672250029556065 Phases=1 yearly=res_kw_4825_pu

New Load.load_p2ulv15577_1 conn=wye bus1=p2ulv15577.1 kV=0.12 Vminpu=0.8 Vmaxpu=1.2 model=1 kW=4.2351146418288215 kvar=1.5416088719538104 Phases=1 yearly=res_kw_10296_pu

New Load.load_p2ulv15577_2 conn=wye bus1=p2ulv15577.2 kV=0.12 Vminpu=0.8 Vmaxpu=1.2 model=1 kW=4.2351146418288215 kvar=1.5416088719538104 Phases=1 yearly=res_kw_10296_pu

New Load.load_p2ulv15578_1 conn=wye bus1=p2ulv15578.1 kV=0.12 Vminpu=0.8 Vmaxpu=1.2 model=1 kW=5.80019062558268 kvar=2.8347992077318325 Phases=1 yearly=res_kw_47_pu

New Load.load_p2ulv15578_2 conn=wye bus1=p2ulv15578.2 kV=0.12 Vminpu=0.8 Vmaxpu=1.2 model=1 kW=5.80019062558268 kvar=2.8347992077318325 Phases=1 yearly=res_kw_47_pu

New Load.load_p2ulv16871_1 conn=wye bus1=p2ulv16871.1 kV=0.12 Vminpu=0.8 Vmaxpu=1.2 model=1 kW=15.017684032916696 kvar=4.427588912558012 Phases=1 yearly=res_kw_14243_pu

New Load.load_p2ulv16871_2 conn=wye bus1=p2ulv16871.2 kV=0.12 Vminpu=0.8 Vmaxpu=1.2 model=1 kW=15.017684032916696 kvar=4.427588912558012 Phases=1 yearly=res_kw_14243_pu

New Load.load_p2ulv16872_1 conn=wye bus1=p2ulv16872.1 kV=0.12 Vminpu=0.8 Vmaxpu=1.2 model=1 kW=4.627358197482909 kvar=1.426997862637041 Phases=1 yearly=res_kw_12847_pu

New Load.load_p2ulv16872_2 conn=wye bus1=p2ulv16872.2 kV=0.12 Vminpu=0.8 Vmaxpu=1.2 model=1 kW=4.627358197482909 kvar=1.426997862637041 Phases=1 yearly=res_kw_12847_pu

New Load.load_p2ulv16873_1 conn=wye bus1=p2ulv16873.1 kV=0.12 Vminpu=0.8 Vmaxpu=1.2 model=1 kW=11.789788128831495 kvar=5.104197877675544 Phases=1 yearly=res_kw_12729_pu

New Load.load_p2ulv16873_2 conn=wye bus1=p2ulv16873.2 kV=0.12 Vminpu=0.8 Vmaxpu=1.2 model=1 kW=11.789788128831495 kvar=5.104197877675544 Phases=1 yearly=res_kw_12729_pu

New Load.load_p2ulv16882_1 conn=wye bus1=p2ulv16882.1 kV=0.12 Vminpu=0.8 Vmaxpu=1.2 model=1 kW=11.289859133349022 kvar=2.6565348590193425 Phases=1 yearly=res_kw_12449_pu

New Load.load_p2ulv16882_2 conn=wye bus1=p2ulv16882.2 kV=0.12 Vminpu=0.8 Vmaxpu=1.2 model=1 kW=11.289859133349022 kvar=2.6565348590193425 Phases=1 yearly=res_kw_12449_pu

New Load.load_p2ulv16883_1 conn=wye bus1=p2ulv16883.1 kV=0.12 Vminpu=0.8 Vmaxpu=1.2 model=1 kW=5.572834279072763 kvar=0.683319877554522 Phases=1 yearly=com_kw_32251_pu

New Load.load_p2ulv16883_2 conn=wye bus1=p2ulv16883.2 kV=0.12 Vminpu=0.8 Vmaxpu=1.2 model=1 kW=5.572834279072763 kvar=0.683319877554522 Phases=1 yearly=com_kw_32251_pu

New Load.load_p2ulv17033_1 conn=wye bus1=p2ulv17033.1 kV=0.12 Vminpu=0.8 Vmaxpu=1.2 model=1 kW=3.66477771709514 kvar=0.5959578423293508 Phases=1 yearly=res_kw_10729_pu

New Load.load_p2ulv17033_2 conn=wye bus1=p2ulv17033.2 kV=0.12 Vminpu=0.8 Vmaxpu=1.2 model=1 kW=3.66477771709514 kvar=0.5959578423293508 Phases=1 yearly=res_kw_10729_pu

New Load.load_p2ulv17034_1 conn=wye bus1=p2ulv17034.1 kV=0.12 Vminpu=0.8 Vmaxpu=1.2 model=1 kW=4.960819410761964 kvar=1.0161481029950088 Phases=1 yearly=res_kw_11090_pu

New Load.load_p2ulv17034_2 conn=wye bus1=p2ulv17034.2 kV=0.12 Vminpu=0.8 Vmaxpu=1.2 model=1 kW=4.960819410761964 kvar=1.0161481029950088 Phases=1 yearly=res_kw_11090_pu

New Load.load_p2ulv17035_1 conn=wye bus1=p2ulv17035.1 kV=0.12 Vminpu=0.8 Vmaxpu=1.2 model=1 kW=4.485172973967372 kvar=0.9944263673535177 Phases=1 yearly=res_kw_9824_pu

New Load.load_p2ulv17035_2 conn=wye bus1=p2ulv17035.2 kV=0.12 Vminpu=0.8 Vmaxpu=1.2 model=1 kW=4.485172973967372 kvar=0.9944263673535177 Phases=1 yearly=res_kw_9824_pu

New Load.load_p2ulv17036_1 conn=wye bus1=p2ulv17036.1 kV=0.12 Vminpu=0.8 Vmaxpu=1.2 model=1 kW=10.612091859716264 kvar=3.3325522977485718 Phases=1 yearly=res_kw_4800_pu

New Load.load_p2ulv17036_2 conn=wye bus1=p2ulv17036.2 kV=0.12 Vminpu=0.8 Vmaxpu=1.2 model=1 kW=10.612091859716264 kvar=3.3325522977485718 Phases=1 yearly=res_kw_4800_pu

New Load.load_p2ulv17037_1 conn=wye bus1=p2ulv17037.1 kV=0.12 Vminpu=0.8 Vmaxpu=1.2 model=1 kW=5.2285412739437165 kvar=1.0163656284618292 Phases=1 yearly=res_kw_7712_pu

New Load.load_p2ulv17037_2 conn=wye bus1=p2ulv17037.2 kV=0.12 Vminpu=0.8 Vmaxpu=1.2 model=1 kW=5.2285412739437165 kvar=1.0163656284618292 Phases=1 yearly=res_kw_7712_pu

New Load.load_p2ulv17038_1 conn=wye bus1=p2ulv17038.1 kV=0.12 Vminpu=0.8 Vmaxpu=1.2 model=1 kW=2.9233060787231575 kvar=1.431469772224645 Phases=1 yearly=res_kw_5155_pu

New Load.load_p2ulv17038_2 conn=wye bus1=p2ulv17038.2 kV=0.12 Vminpu=0.8 Vmaxpu=1.2 model=1 kW=2.9233060787231575 kvar=1.431469772224645 Phases=1 yearly=res_kw_5155_pu

New Load.load_p2ulv17039_1 conn=wye bus1=p2ulv17038.1 kV=0.12 Vminpu=0.8 Vmaxpu=1.2 model=1 kW=2.6224477749097725 kvar=0.939411358234502 Phases=1 yearly=res_kw_6975_pu

New Load.load_p2ulv17039_2 conn=wye bus1=p2ulv17038.2 kV=0.12 Vminpu=0.8 Vmaxpu=1.2 model=1 kW=2.6224477749097725 kvar=0.939411358234502 Phases=1 yearly=res_kw_6975_pu

New Load.load_p2ulv17040_1 conn=wye bus1=p2ulv17040.1 kV=0.12 Vminpu=0.8 Vmaxpu=1.2 model=1 kW=5.385772821478587 kvar=1.6009172710699977 Phases=1 yearly=com_kw_20964_pu

New Load.load_p2ulv17040_2 conn=wye bus1=p2ulv17040.2 kV=0.12 Vminpu=0.8 Vmaxpu=1.2 model=1 kW=5.385772821478587 kvar=1.6009172710699977 Phases=1 yearly=com_kw_20964_pu

New Load.load_p2ulv17041_1 conn=wye bus1=p2ulv17041.1 kV=0.12 Vminpu=0.8 Vmaxpu=1.2 model=1 kW=3.902887215219663 kvar=1.111231385342157 Phases=1 yearly=com_kw_2430_pu

New Load.load_p2ulv17041_2 conn=wye bus1=p2ulv17041.2 kV=0.12 Vminpu=0.8 Vmaxpu=1.2 model=1 kW=3.902887215219663 kvar=1.111231385342157 Phases=1 yearly=com_kw_2430_pu

New Load.load_p2ulv17042_1 conn=wye bus1=p2ulv17041.1 kV=0.12 Vminpu=0.8 Vmaxpu=1.2 model=1 kW=2.545076255256798 kvar=0.5133372513196766 Phases=1 yearly=res_kw_9677_pu

New Load.load_p2ulv17042_2 conn=wye bus1=p2ulv17041.2 kV=0.12 Vminpu=0.8 Vmaxpu=1.2 model=1 kW=2.545076255256798 kvar=0.5133372513196766 Phases=1 yearly=res_kw_9677_pu

New Load.load_p2ulv17043_1 conn=wye bus1=p2ulv17043.1 kV=0.12 Vminpu=0.8 Vmaxpu=1.2 model=1 kW=5.385772821478587 kvar=1.6009172710699977 Phases=1 yearly=com_kw_20964_pu

New Load.load_p2ulv17043_2 conn=wye bus1=p2ulv17043.2 kV=0.12 Vminpu=0.8 Vmaxpu=1.2 model=1 kW=5.385772821478587 kvar=1.6009172710699977 Phases=1 yearly=com_kw_20964_pu

New Load.load_p2ulv17044_1 conn=wye bus1=p2ulv17044.1 kV=0.12 Vminpu=0.8 Vmaxpu=1.2 model=1 kW=1.743352320337187 kvar=0.2872742937277081 Phases=1 yearly=res_kw_2851_pu
