New Loadshape.SFO_37.7984_-122.5116_45_225 npts= 35040 interval=0.25 mult = (file=C:\SMARTDS-2-PyDSS-Visualizer/profiles/SFO_37.7984_-122.5116_45_225.csv)

New Loadshape.SFO_37.7984_-122.5116_35_135 npts= 35040 interval=0.25 mult = (file=C:\SMARTDS-2-PyDSS-Visualizer/profiles/SFO_37.7984_-122.5116_35_135.csv)

New Loadshape.SFO_37.7984_-122.5116_25_225 npts= 35040 interval=0.25 mult = (file=C:\SMARTDS-2-PyDSS-Visualizer/profiles/SFO_37.7984_-122.5116_25_225.csv)

New Loadshape.SFO_37.7984_-122.5116_15_180 npts= 35040 interval=0.25 mult = (file=C:\SMARTDS-2-PyDSS-Visualizer/profiles/SFO_37.7984_-122.5116_15_180.csv)

New Loadshape.SFO_37.7984_-122.5116_35_180 npts= 35040 interval=0.25 mult = (file=C:\SMARTDS-2-PyDSS-Visualizer/profiles/SFO_37.7984_-122.5116_35_180.csv)

New Loadshape.SFO_37.7984_-122.5116_15_135 npts= 35040 interval=0.25 mult = (file=C:\SMARTDS-2-PyDSS-Visualizer/profiles/SFO_37.7984_-122.5116_15_135.csv)

New Loadshape.SFO_37.7984_-122.5116_25_270 npts= 35040 interval=0.25 mult = (file=C:\SMARTDS-2-PyDSS-Visualizer/profiles/SFO_37.7984_-122.5116_25_270.csv)

New Loadshape.SFO_37.7984_-122.5116_25_180 npts= 35040 interval=0.25 mult = (file=C:\SMARTDS-2-PyDSS-Visualizer/profiles/SFO_37.7984_-122.5116_25_180.csv)

New Loadshape.SFO_37.7984_-122.5116_15_270 npts= 35040 interval=0.25 mult = (file=C:\SMARTDS-2-PyDSS-Visualizer/profiles/SFO_37.7984_-122.5116_15_270.csv)

New Loadshape.SFO_37.7984_-122.5116_15_225 npts= 35040 interval=0.25 mult = (file=C:\SMARTDS-2-PyDSS-Visualizer/profiles/SFO_37.7984_-122.5116_15_225.csv)

New Loadshape.SFO_37.7984_-122.5116_45_270 npts= 35040 interval=0.25 mult = (file=C:\SMARTDS-2-PyDSS-Visualizer/profiles/SFO_37.7984_-122.5116_45_270.csv)

New Loadshape.SFO_37.7984_-122.5116_35_225 npts= 35040 interval=0.25 mult = (file=C:\SMARTDS-2-PyDSS-Visualizer/profiles/SFO_37.7984_-122.5116_35_225.csv)

New Loadshape.SFO_37.7984_-122.5116_35_90 npts= 35040 interval=0.25 mult = (file=C:\SMARTDS-2-PyDSS-Visualizer/profiles/SFO_37.7984_-122.5116_35_90.csv)

New Loadshape.SFO_37.7984_-122.5116_25_135 npts= 35040 interval=0.25 mult = (file=C:\SMARTDS-2-PyDSS-Visualizer/profiles/SFO_37.7984_-122.5116_25_135.csv)

New Loadshape.SFO_37.7984_-122.5116_25_90 npts= 35040 interval=0.25 mult = (file=C:\SMARTDS-2-PyDSS-Visualizer/profiles/SFO_37.7984_-122.5116_25_90.csv)

New Loadshape.SFO_37.7984_-122.5116_45_180 npts= 35040 interval=0.25 mult = (file=C:\SMARTDS-2-PyDSS-Visualizer/profiles/SFO_37.7984_-122.5116_45_180.csv)

New Loadshape.SFO_37.7984_-122.5116_45_90 npts= 35040 interval=0.25 mult = (file=C:\SMARTDS-2-PyDSS-Visualizer/profiles/SFO_37.7984_-122.5116_45_90.csv)

New Loadshape.SFO_37.7984_-122.5116_15_90 npts= 35040 interval=0.25 mult = (file=C:\SMARTDS-2-PyDSS-Visualizer/profiles/SFO_37.7984_-122.5116_15_90.csv)

New Loadshape.SFO_37.7984_-122.5116_35_270 npts= 35040 interval=0.25 mult = (file=C:\SMARTDS-2-PyDSS-Visualizer/profiles/SFO_37.7984_-122.5116_35_270.csv)

New Loadshape.SFO_37.7984_-122.5116_45_135 npts= 35040 interval=0.25 mult = (file=C:\SMARTDS-2-PyDSS-Visualizer/profiles/SFO_37.7984_-122.5116_45_135.csv)

New Loadshape.res_kw_9927_pu npts= 35040 interval=0.25 mult = (file=C:\SMARTDS-2-PyDSS-Visualizer/profiles/res_kw_9927_pu.csv) qmult = (file=C:\SMARTDS-2-PyDSS-Visualizer/profiles/res_kvar_9927_pu.csv)

New Loadshape.res_kw_8152_pu npts= 35040 interval=0.25 mult = (file=C:\SMARTDS-2-PyDSS-Visualizer/profiles/res_kw_8152_pu.csv) qmult = (file=C:\SMARTDS-2-PyDSS-Visualizer/profiles/res_kvar_8152_pu.csv)

New Loadshape.res_kw_892_pu npts= 35040 interval=0.25 mult = (file=C:\SMARTDS-2-PyDSS-Visualizer/profiles/res_kw_892_pu.csv) qmult = (file=C:\SMARTDS-2-PyDSS-Visualizer/profiles/res_kvar_892_pu.csv)

New Loadshape.res_kw_3244_pu npts= 35040 interval=0.25 mult = (file=C:\SMARTDS-2-PyDSS-Visualizer/profiles/res_kw_3244_pu.csv) qmult = (file=C:\SMARTDS-2-PyDSS-Visualizer/profiles/res_kvar_3244_pu.csv)

New Loadshape.res_kw_1525_pu npts= 35040 interval=0.25 mult = (file=C:\SMARTDS-2-PyDSS-Visualizer/profiles/res_kw_1525_pu.csv) qmult = (file=C:\SMARTDS-2-PyDSS-Visualizer/profiles/res_kvar_1525_pu.csv)

New Loadshape.res_kw_11946_pu npts= 35040 interval=0.25 mult = (file=C:\SMARTDS-2-PyDSS-Visualizer/profiles/res_kw_11946_pu.csv) qmult = (file=C:\SMARTDS-2-PyDSS-Visualizer/profiles/res_kvar_11946_pu.csv)

New Loadshape.res_kw_10786_pu npts= 35040 interval=0.25 mult = (file=C:\SMARTDS-2-PyDSS-Visualizer/profiles/res_kw_10786_pu.csv) qmult = (file=C:\SMARTDS-2-PyDSS-Visualizer/profiles/res_kvar_10786_pu.csv)

New Loadshape.res_kw_14528_pu npts= 35040 interval=0.25 mult = (file=C:\SMARTDS-2-PyDSS-Visualizer/profiles/res_kw_14528_pu.csv) qmult = (file=C:\SMARTDS-2-PyDSS-Visualizer/profiles/res_kvar_14528_pu.csv)

New Loadshape.res_kw_14580_pu npts= 35040 interval=0.25 mult = (file=C:\SMARTDS-2-PyDSS-Visualizer/profiles/res_kw_14580_pu.csv) qmult = (file=C:\SMARTDS-2-PyDSS-Visualizer/profiles/res_kvar_14580_pu.csv)

New Loadshape.res_kw_2567_pu npts= 35040 interval=0.25 mult = (file=C:\SMARTDS-2-PyDSS-Visualizer/profiles/res_kw_2567_pu.csv) qmult = (file=C:\SMARTDS-2-PyDSS-Visualizer/profiles/res_kvar_2567_pu.csv)

New Loadshape.res_kw_2893_pu npts= 35040 interval=0.25 mult = (file=C:\SMARTDS-2-PyDSS-Visualizer/profiles/res_kw_2893_pu.csv) qmult = (file=C:\SMARTDS-2-PyDSS-Visualizer/profiles/res_kvar_2893_pu.csv)

New Loadshape.res_kw_11804_pu npts= 35040 interval=0.25 mult = (file=C:\SMARTDS-2-PyDSS-Visualizer/profiles/res_kw_11804_pu.csv) qmult = (file=C:\SMARTDS-2-PyDSS-Visualizer/profiles/res_kvar_11804_pu.csv)

New Loadshape.res_kw_14465_pu npts= 35040 interval=0.25 mult = (file=C:\SMARTDS-2-PyDSS-Visualizer/profiles/res_kw_14465_pu.csv) qmult = (file=C:\SMARTDS-2-PyDSS-Visualizer/profiles/res_kvar_14465_pu.csv)

New Loadshape.res_kw_7887_pu npts= 35040 interval=0.25 mult = (file=C:\SMARTDS-2-PyDSS-Visualizer/profiles/res_kw_7887_pu.csv) qmult = (file=C:\SMARTDS-2-PyDSS-Visualizer/profiles/res_kvar_7887_pu.csv)

New Loadshape.res_kw_11296_pu npts= 35040 interval=0.25 mult = (file=C:\SMARTDS-2-PyDSS-Visualizer/profiles/res_kw_11296_pu.csv) qmult = (file=C:\SMARTDS-2-PyDSS-Visualizer/profiles/res_kvar_11296_pu.csv)

New Loadshape.res_kw_4202_pu npts= 35040 interval=0.25 mult = (file=C:\SMARTDS-2-PyDSS-Visualizer/profiles/res_kw_4202_pu.csv) qmult = (file=C:\SMARTDS-2-PyDSS-Visualizer/profiles/res_kvar_4202_pu.csv)

New Loadshape.res_kw_10296_pu npts= 35040 interval=0.25 mult = (file=C:\SMARTDS-2-PyDSS-Visualizer/profiles/res_kw_10296_pu.csv) qmult = (file=C:\SMARTDS-2-PyDSS-Visualizer/profiles/res_kvar_10296_pu.csv)

New Loadshape.res_kw_3465_pu npts= 35040 interval=0.25 mult = (file=C:\SMARTDS-2-PyDSS-Visualizer/profiles/res_kw_3465_pu.csv) qmult = (file=C:\SMARTDS-2-PyDSS-Visualizer/profiles/res_kvar_3465_pu.csv)

New Loadshape.res_kw_13375_pu npts= 35040 interval=0.25 mult = (file=C:\SMARTDS-2-PyDSS-Visualizer/profiles/res_kw_13375_pu.csv) qmult = (file=C:\SMARTDS-2-PyDSS-Visualizer/profiles/res_kvar_13375_pu.csv)

New Loadshape.res_kw_1601_pu npts= 35040 interval=0.25 mult = (file=C:\SMARTDS-2-PyDSS-Visualizer/profiles/res_kw_1601_pu.csv) qmult = (file=C:\SMARTDS-2-PyDSS-Visualizer/profiles/res_kvar_1601_pu.csv)

New Loadshape.res_kw_5267_pu npts= 35040 interval=0.25 mult = (file=C:\SMARTDS-2-PyDSS-Visualizer/profiles/res_kw_5267_pu.csv) qmult = (file=C:\SMARTDS-2-PyDSS-Visualizer/profiles/res_kvar_5267_pu.csv)

New Loadshape.res_kw_1826_pu npts= 35040 interval=0.25 mult = (file=C:\SMARTDS-2-PyDSS-Visualizer/profiles/res_kw_1826_pu.csv) qmult = (file=C:\SMARTDS-2-PyDSS-Visualizer/profiles/res_kvar_1826_pu.csv)

New Loadshape.res_kw_5863_pu npts= 35040 interval=0.25 mult = (file=C:\SMARTDS-2-PyDSS-Visualizer/profiles/res_kw_5863_pu.csv) qmult = (file=C:\SMARTDS-2-PyDSS-Visualizer/profiles/res_kvar_5863_pu.csv)

New Loadshape.res_kw_4459_pu npts= 35040 interval=0.25 mult = (file=C:\SMARTDS-2-PyDSS-Visualizer/profiles/res_kw_4459_pu.csv) qmult = (file=C:\SMARTDS-2-PyDSS-Visualizer/profiles/res_kvar_4459_pu.csv)

New Loadshape.res_kw_4592_pu npts= 35040 interval=0.25 mult = (file=C:\SMARTDS-2-PyDSS-Visualizer/profiles/res_kw_4592_pu.csv) qmult = (file=C:\SMARTDS-2-PyDSS-Visualizer/profiles/res_kvar_4592_pu.csv)

New Loadshape.res_kw_6496_pu npts= 35040 interval=0.25 mult = (file=C:\SMARTDS-2-PyDSS-Visualizer/profiles/res_kw_6496_pu.csv) qmult = (file=C:\SMARTDS-2-PyDSS-Visualizer/profiles/res_kvar_6496_pu.csv)

New Loadshape.res_kw_6387_pu npts= 35040 interval=0.25 mult = (file=C:\SMARTDS-2-PyDSS-Visualizer/profiles/res_kw_6387_pu.csv) qmult = (file=C:\SMARTDS-2-PyDSS-Visualizer/profiles/res_kvar_6387_pu.csv)

New Loadshape.res_kw_10867_pu npts= 35040 interval=0.25 mult = (file=C:\SMARTDS-2-PyDSS-Visualizer/profiles/res_kw_10867_pu.csv) qmult = (file=C:\SMARTDS-2-PyDSS-Visualizer/profiles/res_kvar_10867_pu.csv)

New Loadshape.res_kw_11379_pu npts= 35040 interval=0.25 mult = (file=C:\SMARTDS-2-PyDSS-Visualizer/profiles/res_kw_11379_pu.csv) qmult = (file=C:\SMARTDS-2-PyDSS-Visualizer/profiles/res_kvar_11379_pu.csv)

New Loadshape.res_kw_13657_pu npts= 35040 interval=0.25 mult = (file=C:\SMARTDS-2-PyDSS-Visualizer/profiles/res_kw_13657_pu.csv) qmult = (file=C:\SMARTDS-2-PyDSS-Visualizer/profiles/res_kvar_13657_pu.csv)

New Loadshape.res_kw_3240_pu npts= 35040 interval=0.25 mult = (file=C:\SMARTDS-2-PyDSS-Visualizer/profiles/res_kw_3240_pu.csv) qmult = (file=C:\SMARTDS-2-PyDSS-Visualizer/profiles/res_kvar_3240_pu.csv)

New Loadshape.res_kw_60_pu npts= 35040 interval=0.25 mult = (file=C:\SMARTDS-2-PyDSS-Visualizer/profiles/res_kw_60_pu.csv) qmult = (file=C:\SMARTDS-2-PyDSS-Visualizer/profiles/res_kvar_60_pu.csv)

New Loadshape.res_kw_3674_pu npts= 35040 interval=0.25 mult = (file=C:\SMARTDS-2-PyDSS-Visualizer/profiles/res_kw_3674_pu.csv) qmult = (file=C:\SMARTDS-2-PyDSS-Visualizer/profiles/res_kvar_3674_pu.csv)

New Loadshape.res_kw_11003_pu npts= 35040 interval=0.25 mult = (file=C:\SMARTDS-2-PyDSS-Visualizer/profiles/res_kw_11003_pu.csv) qmult = (file=C:\SMARTDS-2-PyDSS-Visualizer/profiles/res_kvar_11003_pu.csv)

New Loadshape.res_kw_1061_pu npts= 35040 interval=0.25 mult = (file=C:\SMARTDS-2-PyDSS-Visualizer/profiles/res_kw_1061_pu.csv) qmult = (file=C:\SMARTDS-2-PyDSS-Visualizer/profiles/res_kvar_1061_pu.csv)

New Loadshape.res_kw_3304_pu npts= 35040 interval=0.25 mult = (file=C:\SMARTDS-2-PyDSS-Visualizer/profiles/res_kw_3304_pu.csv) qmult = (file=C:\SMARTDS-2-PyDSS-Visualizer/profiles/res_kvar_3304_pu.csv)

New Loadshape.res_kw_2180_pu npts= 35040 interval=0.25 mult = (file=C:\SMARTDS-2-PyDSS-Visualizer/profiles/res_kw_2180_pu.csv) qmult = (file=C:\SMARTDS-2-PyDSS-Visualizer/profiles/res_kvar_2180_pu.csv)

New Loadshape.res_kw_15102_pu npts= 35040 interval=0.25 mult = (file=C:\SMARTDS-2-PyDSS-Visualizer/profiles/res_kw_15102_pu.csv) qmult = (file=C:\SMARTDS-2-PyDSS-Visualizer/profiles/res_kvar_15102_pu.csv)

New Loadshape.res_kw_13663_pu npts= 35040 interval=0.25 mult = (file=C:\SMARTDS-2-PyDSS-Visualizer/profiles/res_kw_13663_pu.csv) qmult = (file=C:\SMARTDS-2-PyDSS-Visualizer/profiles/res_kvar_13663_pu.csv)

New Loadshape.res_kw_12977_pu npts= 35040 interval=0.25 mult = (file=C:\SMARTDS-2-PyDSS-Visualizer/profiles/res_kw_12977_pu.csv) qmult = (file=C:\SMARTDS-2-PyDSS-Visualizer/profiles/res_kvar_12977_pu.csv)

New Loadshape.res_kw_13542_pu npts= 35040 interval=0.25 mult = (file=C:\SMARTDS-2-PyDSS-Visualizer/profiles/res_kw_13542_pu.csv) qmult = (file=C:\SMARTDS-2-PyDSS-Visualizer/profiles/res_kvar_13542_pu.csv)

New Loadshape.res_kw_13363_pu npts= 35040 interval=0.25 mult = (file=C:\SMARTDS-2-PyDSS-Visualizer/profiles/res_kw_13363_pu.csv) qmult = (file=C:\SMARTDS-2-PyDSS-Visualizer/profiles/res_kvar_13363_pu.csv)

New Loadshape.res_kw_2511_pu npts= 35040 interval=0.25 mult = (file=C:\SMARTDS-2-PyDSS-Visualizer/profiles/res_kw_2511_pu.csv) qmult = (file=C:\SMARTDS-2-PyDSS-Visualizer/profiles/res_kvar_2511_pu.csv)

New Loadshape.res_kw_12788_pu npts= 35040 interval=0.25 mult = (file=C:\SMARTDS-2-PyDSS-Visualizer/profiles/res_kw_12788_pu.csv) qmult = (file=C:\SMARTDS-2-PyDSS-Visualizer/profiles/res_kvar_12788_pu.csv)

New Loadshape.res_kw_5439_pu npts= 35040 interval=0.25 mult = (file=C:\SMARTDS-2-PyDSS-Visualizer/profiles/res_kw_5439_pu.csv) qmult = (file=C:\SMARTDS-2-PyDSS-Visualizer/profiles/res_kvar_5439_pu.csv)

New Loadshape.res_kw_12125_pu npts= 35040 interval=0.25 mult = (file=C:\SMARTDS-2-PyDSS-Visualizer/profiles/res_kw_12125_pu.csv) qmult = (file=C:\SMARTDS-2-PyDSS-Visualizer/profiles/res_kvar_12125_pu.csv)

New Loadshape.res_kw_1657_pu npts= 35040 interval=0.25 mult = (file=C:\SMARTDS-2-PyDSS-Visualizer/profiles/res_kw_1657_pu.csv) qmult = (file=C:\SMARTDS-2-PyDSS-Visualizer/profiles/res_kvar_1657_pu.csv)

New Loadshape.res_kw_10802_pu npts= 35040 interval=0.25 mult = (file=C:\SMARTDS-2-PyDSS-Visualizer/profiles/res_kw_10802_pu.csv) qmult = (file=C:\SMARTDS-2-PyDSS-Visualizer/profiles/res_kvar_10802_pu.csv)

New Loadshape.res_kw_10300_pu npts= 35040 interval=0.25 mult = (file=C:\SMARTDS-2-PyDSS-Visualizer/profiles/res_kw_10300_pu.csv) qmult = (file=C:\SMARTDS-2-PyDSS-Visualizer/profiles/res_kvar_10300_pu.csv)

New Loadshape.res_kw_1727_pu npts= 35040 interval=0.25 mult = (file=C:\SMARTDS-2-PyDSS-Visualizer/profiles/res_kw_1727_pu.csv) qmult = (file=C:\SMARTDS-2-PyDSS-Visualizer/profiles/res_kvar_1727_pu.csv)

New Loadshape.res_kw_14889_pu npts= 35040 interval=0.25 mult = (file=C:\SMARTDS-2-PyDSS-Visualizer/profiles/res_kw_14889_pu.csv) qmult = (file=C:\SMARTDS-2-PyDSS-Visualizer/profiles/res_kvar_14889_pu.csv)

New Loadshape.res_kw_7083_pu npts= 35040 interval=0.25 mult = (file=C:\SMARTDS-2-PyDSS-Visualizer/profiles/res_kw_7083_pu.csv) qmult = (file=C:\SMARTDS-2-PyDSS-Visualizer/profiles/res_kvar_7083_pu.csv)

New Loadshape.res_kw_7653_pu npts= 35040 interval=0.25 mult = (file=C:\SMARTDS-2-PyDSS-Visualizer/profiles/res_kw_7653_pu.csv) qmult = (file=C:\SMARTDS-2-PyDSS-Visualizer/profiles/res_kvar_7653_pu.csv)

New Loadshape.res_kw_5586_pu npts= 35040 interval=0.25 mult = (file=C:\SMARTDS-2-PyDSS-Visualizer/profiles/res_kw_5586_pu.csv) qmult = (file=C:\SMARTDS-2-PyDSS-Visualizer/profiles/res_kvar_5586_pu.csv)

New Loadshape.res_kw_5151_pu npts= 35040 interval=0.25 mult = (file=C:\SMARTDS-2-PyDSS-Visualizer/profiles/res_kw_5151_pu.csv) qmult = (file=C:\SMARTDS-2-PyDSS-Visualizer/profiles/res_kvar_5151_pu.csv)

New Loadshape.res_kw_990_pu npts= 35040 interval=0.25 mult = (file=C:\SMARTDS-2-PyDSS-Visualizer/profiles/res_kw_990_pu.csv) qmult = (file=C:\SMARTDS-2-PyDSS-Visualizer/profiles/res_kvar_990_pu.csv)

New Loadshape.res_kw_9766_pu npts= 35040 interval=0.25 mult = (file=C:\SMARTDS-2-PyDSS-Visualizer/profiles/res_kw_9766_pu.csv) qmult = (file=C:\SMARTDS-2-PyDSS-Visualizer/profiles/res_kvar_9766_pu.csv)

New Loadshape.res_kw_6403_pu npts= 35040 interval=0.25 mult = (file=C:\SMARTDS-2-PyDSS-Visualizer/profiles/res_kw_6403_pu.csv) qmult = (file=C:\SMARTDS-2-PyDSS-Visualizer/profiles/res_kvar_6403_pu.csv)

New Loadshape.res_kw_8215_pu npts= 35040 interval=0.25 mult = (file=C:\SMARTDS-2-PyDSS-Visualizer/profiles/res_kw_8215_pu.csv) qmult = (file=C:\SMARTDS-2-PyDSS-Visualizer/profiles/res_kvar_8215_pu.csv)

New Loadshape.res_kw_10020_pu npts= 35040 interval=0.25 mult = (file=C:\SMARTDS-2-PyDSS-Visualizer/profiles/res_kw_10020_pu.csv) qmult = (file=C:\SMARTDS-2-PyDSS-Visualizer/profiles/res_kvar_10020_pu.csv)

New Loadshape.res_kw_3700_pu npts= 35040 interval=0.25 mult = (file=C:\SMARTDS-2-PyDSS-Visualizer/profiles/res_kw_3700_pu.csv) qmult = (file=C:\SMARTDS-2-PyDSS-Visualizer/profiles/res_kvar_3700_pu.csv)

New Loadshape.res_kw_12381_pu npts= 35040 interval=0.25 mult = (file=C:\SMARTDS-2-PyDSS-Visualizer/profiles/res_kw_12381_pu.csv) qmult = (file=C:\SMARTDS-2-PyDSS-Visualizer/profiles/res_kvar_12381_pu.csv)

New Loadshape.res_kw_14854_pu npts= 35040 interval=0.25 mult = (file=C:\SMARTDS-2-PyDSS-Visualizer/profiles/res_kw_14854_pu.csv) qmult = (file=C:\SMARTDS-2-PyDSS-Visualizer/profiles/res_kvar_14854_pu.csv)

New Loadshape.res_kw_10771_pu npts= 35040 interval=0.25 mult = (file=C:\SMARTDS-2-PyDSS-Visualizer/profiles/res_kw_10771_pu.csv) qmult = (file=C:\SMARTDS-2-PyDSS-Visualizer/profiles/res_kvar_10771_pu.csv)

New Loadshape.res_kw_11660_pu npts= 35040 interval=0.25 mult = (file=C:\SMARTDS-2-PyDSS-Visualizer/profiles/res_kw_11660_pu.csv) qmult = (file=C:\SMARTDS-2-PyDSS-Visualizer/profiles/res_kvar_11660_pu.csv)

New Loadshape.res_kw_6540_pu npts= 35040 interval=0.25 mult = (file=C:\SMARTDS-2-PyDSS-Visualizer/profiles/res_kw_6540_pu.csv) qmult = (file=C:\SMARTDS-2-PyDSS-Visualizer/profiles/res_kvar_6540_pu.csv)

New Loadshape.res_kw_1930_pu npts= 35040 interval=0.25 mult = (file=C:\SMARTDS-2-PyDSS-Visualizer/profiles/res_kw_1930_pu.csv) qmult = (file=C:\SMARTDS-2-PyDSS-Visualizer/profiles/res_kvar_1930_pu.csv)

New Loadshape.res_kw_4825_pu npts= 35040 interval=0.25 mult = (file=C:\SMARTDS-2-PyDSS-Visualizer/profiles/res_kw_4825_pu.csv) qmult = (file=C:\SMARTDS-2-PyDSS-Visualizer/profiles/res_kvar_4825_pu.csv)

New Loadshape.res_kw_47_pu npts= 35040 interval=0.25 mult = (file=C:\SMARTDS-2-PyDSS-Visualizer/profiles/res_kw_47_pu.csv) qmult = (file=C:\SMARTDS-2-PyDSS-Visualizer/profiles/res_kvar_47_pu.csv)

New Loadshape.res_kw_14243_pu npts= 35040 interval=0.25 mult = (file=C:\SMARTDS-2-PyDSS-Visualizer/profiles/res_kw_14243_pu.csv) qmult = (file=C:\SMARTDS-2-PyDSS-Visualizer/profiles/res_kvar_14243_pu.csv)

New Loadshape.res_kw_12847_pu npts= 35040 interval=0.25 mult = (file=C:\SMARTDS-2-PyDSS-Visualizer/profiles/res_kw_12847_pu.csv) qmult = (file=C:\SMARTDS-2-PyDSS-Visualizer/profiles/res_kvar_12847_pu.csv)

New Loadshape.res_kw_12729_pu npts= 35040 interval=0.25 mult = (file=C:\SMARTDS-2-PyDSS-Visualizer/profiles/res_kw_12729_pu.csv) qmult = (file=C:\SMARTDS-2-PyDSS-Visualizer/profiles/res_kvar_12729_pu.csv)

New Loadshape.res_kw_12449_pu npts= 35040 interval=0.25 mult = (file=C:\SMARTDS-2-PyDSS-Visualizer/profiles/res_kw_12449_pu.csv) qmult = (file=C:\SMARTDS-2-PyDSS-Visualizer/profiles/res_kvar_12449_pu.csv)

New Loadshape.res_kw_10729_pu npts= 35040 interval=0.25 mult = (file=C:\SMARTDS-2-PyDSS-Visualizer/profiles/res_kw_10729_pu.csv) qmult = (file=C:\SMARTDS-2-PyDSS-Visualizer/profiles/res_kvar_10729_pu.csv)

New Loadshape.res_kw_11090_pu npts= 35040 interval=0.25 mult = (file=C:\SMARTDS-2-PyDSS-Visualizer/profiles/res_kw_11090_pu.csv) qmult = (file=C:\SMARTDS-2-PyDSS-Visualizer/profiles/res_kvar_11090_pu.csv)

New Loadshape.res_kw_9824_pu npts= 35040 interval=0.25 mult = (file=C:\SMARTDS-2-PyDSS-Visualizer/profiles/res_kw_9824_pu.csv) qmult = (file=C:\SMARTDS-2-PyDSS-Visualizer/profiles/res_kvar_9824_pu.csv)

New Loadshape.res_kw_4800_pu npts= 35040 interval=0.25 mult = (file=C:\SMARTDS-2-PyDSS-Visualizer/profiles/res_kw_4800_pu.csv) qmult = (file=C:\SMARTDS-2-PyDSS-Visualizer/profiles/res_kvar_4800_pu.csv)

New Loadshape.res_kw_7712_pu npts= 35040 interval=0.25 mult = (file=C:\SMARTDS-2-PyDSS-Visualizer/profiles/res_kw_7712_pu.csv) qmult = (file=C:\SMARTDS-2-PyDSS-Visualizer/profiles/res_kvar_7712_pu.csv)

New Loadshape.res_kw_5155_pu npts= 35040 interval=0.25 mult = (file=C:\SMARTDS-2-PyDSS-Visualizer/profiles/res_kw_5155_pu.csv) qmult = (file=C:\SMARTDS-2-PyDSS-Visualizer/profiles/res_kvar_5155_pu.csv)

New Loadshape.res_kw_6975_pu npts= 35040 interval=0.25 mult = (file=C:\SMARTDS-2-PyDSS-Visualizer/profiles/res_kw_6975_pu.csv) qmult = (file=C:\SMARTDS-2-PyDSS-Visualizer/profiles/res_kvar_6975_pu.csv)

New Loadshape.res_kw_9677_pu npts= 35040 interval=0.25 mult = (file=C:\SMARTDS-2-PyDSS-Visualizer/profiles/res_kw_9677_pu.csv) qmult = (file=C:\SMARTDS-2-PyDSS-Visualizer/profiles/res_kvar_9677_pu.csv)

New Loadshape.res_kw_2851_pu npts= 35040 interval=0.25 mult = (file=C:\SMARTDS-2-PyDSS-Visualizer/profiles/res_kw_2851_pu.csv) qmult = (file=C:\SMARTDS-2-PyDSS-Visualizer/profiles/res_kvar_2851_pu.csv)

New Loadshape.res_kw_11436_pu npts= 35040 interval=0.25 mult = (file=C:\SMARTDS-2-PyDSS-Visualizer/profiles/res_kw_11436_pu.csv) qmult = (file=C:\SMARTDS-2-PyDSS-Visualizer/profiles/res_kvar_11436_pu.csv)

New Loadshape.res_kw_12835_pu npts= 35040 interval=0.25 mult = (file=C:\SMARTDS-2-PyDSS-Visualizer/profiles/res_kw_12835_pu.csv) qmult = (file=C:\SMARTDS-2-PyDSS-Visualizer/profiles/res_kvar_12835_pu.csv)

New Loadshape.res_kw_11713_pu npts= 35040 interval=0.25 mult = (file=C:\SMARTDS-2-PyDSS-Visualizer/profiles/res_kw_11713_pu.csv) qmult = (file=C:\SMARTDS-2-PyDSS-Visualizer/profiles/res_kvar_11713_pu.csv)

New Loadshape.res_kw_5484_pu npts= 35040 interval=0.25 mult = (file=C:\SMARTDS-2-PyDSS-Visualizer/profiles/res_kw_5484_pu.csv) qmult = (file=C:\SMARTDS-2-PyDSS-Visualizer/profiles/res_kvar_5484_pu.csv)

New Loadshape.res_kw_7290_pu npts= 35040 interval=0.25 mult = (file=C:\SMARTDS-2-PyDSS-Visualizer/profiles/res_kw_7290_pu.csv) qmult = (file=C:\SMARTDS-2-PyDSS-Visualizer/profiles/res_kvar_7290_pu.csv)

New Loadshape.res_kw_2597_pu npts= 35040 interval=0.25 mult = (file=C:\SMARTDS-2-PyDSS-Visualizer/profiles/res_kw_2597_pu.csv) qmult = (file=C:\SMARTDS-2-PyDSS-Visualizer/profiles/res_kvar_2597_pu.csv)

New Loadshape.res_kw_7377_pu npts= 35040 interval=0.25 mult = (file=C:\SMARTDS-2-PyDSS-Visualizer/profiles/res_kw_7377_pu.csv) qmult = (file=C:\SMARTDS-2-PyDSS-Visualizer/profiles/res_kvar_7377_pu.csv)

New Loadshape.res_kw_5809_pu npts= 35040 interval=0.25 mult = (file=C:\SMARTDS-2-PyDSS-Visualizer/profiles/res_kw_5809_pu.csv) qmult = (file=C:\SMARTDS-2-PyDSS-Visualizer/profiles/res_kvar_5809_pu.csv)

New Loadshape.res_kw_11729_pu npts= 35040 interval=0.25 mult = (file=C:\SMARTDS-2-PyDSS-Visualizer/profiles/res_kw_11729_pu.csv) qmult = (file=C:\SMARTDS-2-PyDSS-Visualizer/profiles/res_kvar_11729_pu.csv)

New Loadshape.res_kw_4965_pu npts= 35040 interval=0.25 mult = (file=C:\SMARTDS-2-PyDSS-Visualizer/profiles/res_kw_4965_pu.csv) qmult = (file=C:\SMARTDS-2-PyDSS-Visualizer/profiles/res_kvar_4965_pu.csv)

New Loadshape.res_kw_10847_pu npts= 35040 interval=0.25 mult = (file=C:\SMARTDS-2-PyDSS-Visualizer/profiles/res_kw_10847_pu.csv) qmult = (file=C:\SMARTDS-2-PyDSS-Visualizer/profiles/res_kvar_10847_pu.csv)

New Loadshape.res_kw_10364_pu npts= 35040 interval=0.25 mult = (file=C:\SMARTDS-2-PyDSS-Visualizer/profiles/res_kw_10364_pu.csv) qmult = (file=C:\SMARTDS-2-PyDSS-Visualizer/profiles/res_kvar_10364_pu.csv)

New Loadshape.res_kw_5148_pu npts= 35040 interval=0.25 mult = (file=C:\SMARTDS-2-PyDSS-Visualizer/profiles/res_kw_5148_pu.csv) qmult = (file=C:\SMARTDS-2-PyDSS-Visualizer/profiles/res_kvar_5148_pu.csv)

New Loadshape.res_kw_12664_pu npts= 35040 interval=0.25 mult = (file=C:\SMARTDS-2-PyDSS-Visualizer/profiles/res_kw_12664_pu.csv) qmult = (file=C:\SMARTDS-2-PyDSS-Visualizer/profiles/res_kvar_12664_pu.csv)

New Loadshape.res_kw_1361_pu npts= 35040 interval=0.25 mult = (file=C:\SMARTDS-2-PyDSS-Visualizer/profiles/res_kw_1361_pu.csv) qmult = (file=C:\SMARTDS-2-PyDSS-Visualizer/profiles/res_kvar_1361_pu.csv)

New Loadshape.res_kw_13594_pu npts= 35040 interval=0.25 mult = (file=C:\SMARTDS-2-PyDSS-Visualizer/profiles/res_kw_13594_pu.csv) qmult = (file=C:\SMARTDS-2-PyDSS-Visualizer/profiles/res_kvar_13594_pu.csv)

New Loadshape.res_kw_13614_pu npts= 35040 interval=0.25 mult = (file=C:\SMARTDS-2-PyDSS-Visualizer/profiles/res_kw_13614_pu.csv) qmult = (file=C:\SMARTDS-2-PyDSS-Visualizer/profiles/res_kvar_13614_pu.csv)

New Loadshape.res_kw_4896_pu npts= 35040 interval=0.25 mult = (file=C:\SMARTDS-2-PyDSS-Visualizer/profiles/res_kw_4896_pu.csv) qmult = (file=C:\SMARTDS-2-PyDSS-Visualizer/profiles/res_kvar_4896_pu.csv)

New Loadshape.res_kw_4631_pu npts= 35040 interval=0.25 mult = (file=C:\SMARTDS-2-PyDSS-Visualizer/profiles/res_kw_4631_pu.csv) qmult = (file=C:\SMARTDS-2-PyDSS-Visualizer/profiles/res_kvar_4631_pu.csv)

New Loadshape.res_kw_10453_pu npts= 35040 interval=0.25 mult = (file=C:\SMARTDS-2-PyDSS-Visualizer/profiles/res_kw_10453_pu.csv) qmult = (file=C:\SMARTDS-2-PyDSS-Visualizer/profiles/res_kvar_10453_pu.csv)

New Loadshape.res_kw_6920_pu npts= 35040 interval=0.25 mult = (file=C:\SMARTDS-2-PyDSS-Visualizer/profiles/res_kw_6920_pu.csv) qmult = (file=C:\SMARTDS-2-PyDSS-Visualizer/profiles/res_kvar_6920_pu.csv)

New Loadshape.res_kw_15206_pu npts= 35040 interval=0.25 mult = (file=C:\SMARTDS-2-PyDSS-Visualizer/profiles/res_kw_15206_pu.csv) qmult = (file=C:\SMARTDS-2-PyDSS-Visualizer/profiles/res_kvar_15206_pu.csv)

New Loadshape.res_kw_1797_pu npts= 35040 interval=0.25 mult = (file=C:\SMARTDS-2-PyDSS-Visualizer/profiles/res_kw_1797_pu.csv) qmult = (file=C:\SMARTDS-2-PyDSS-Visualizer/profiles/res_kvar_1797_pu.csv)

New Loadshape.res_kw_7611_pu npts= 35040 interval=0.25 mult = (file=C:\SMARTDS-2-PyDSS-Visualizer/profiles/res_kw_7611_pu.csv) qmult = (file=C:\SMARTDS-2-PyDSS-Visualizer/profiles/res_kvar_7611_pu.csv)

New Loadshape.res_kw_5955_pu npts= 35040 interval=0.25 mult = (file=C:\SMARTDS-2-PyDSS-Visualizer/profiles/res_kw_5955_pu.csv) qmult = (file=C:\SMARTDS-2-PyDSS-Visualizer/profiles/res_kvar_5955_pu.csv)

New Loadshape.res_kw_3026_pu npts= 35040 interval=0.25 mult = (file=C:\SMARTDS-2-PyDSS-Visualizer/profiles/res_kw_3026_pu.csv) qmult = (file=C:\SMARTDS-2-PyDSS-Visualizer/profiles/res_kvar_3026_pu.csv)

New Loadshape.res_kw_7169_pu npts= 35040 interval=0.25 mult = (file=C:\SMARTDS-2-PyDSS-Visualizer/profiles/res_kw_7169_pu.csv) qmult = (file=C:\SMARTDS-2-PyDSS-Visualizer/profiles/res_kvar_7169_pu.csv)

New Loadshape.res_kw_7172_pu npts= 35040 interval=0.25 mult = (file=C:\SMARTDS-2-PyDSS-Visualizer/profiles/res_kw_7172_pu.csv) qmult = (file=C:\SMARTDS-2-PyDSS-Visualizer/profiles/res_kvar_7172_pu.csv)

New Loadshape.res_kw_5158_pu npts= 35040 interval=0.25 mult = (file=C:\SMARTDS-2-PyDSS-Visualizer/profiles/res_kw_5158_pu.csv) qmult = (file=C:\SMARTDS-2-PyDSS-Visualizer/profiles/res_kvar_5158_pu.csv)

New Loadshape.res_kw_189_pu npts= 35040 interval=0.25 mult = (file=C:\SMARTDS-2-PyDSS-Visualizer/profiles/res_kw_189_pu.csv) qmult = (file=C:\SMARTDS-2-PyDSS-Visualizer/profiles/res_kvar_189_pu.csv)

New Loadshape.res_kw_12472_pu npts= 35040 interval=0.25 mult = (file=C:\SMARTDS-2-PyDSS-Visualizer/profiles/res_kw_12472_pu.csv) qmult = (file=C:\SMARTDS-2-PyDSS-Visualizer/profiles/res_kvar_12472_pu.csv)

New Loadshape.res_kw_6751_pu npts= 35040 interval=0.25 mult = (file=C:\SMARTDS-2-PyDSS-Visualizer/profiles/res_kw_6751_pu.csv) qmult = (file=C:\SMARTDS-2-PyDSS-Visualizer/profiles/res_kvar_6751_pu.csv)

New Loadshape.res_kw_753_pu npts= 35040 interval=0.25 mult = (file=C:\SMARTDS-2-PyDSS-Visualizer/profiles/res_kw_753_pu.csv) qmult = (file=C:\SMARTDS-2-PyDSS-Visualizer/profiles/res_kvar_753_pu.csv)

New Loadshape.res_kw_251_pu npts= 35040 interval=0.25 mult = (file=C:\SMARTDS-2-PyDSS-Visualizer/profiles/res_kw_251_pu.csv) qmult = (file=C:\SMARTDS-2-PyDSS-Visualizer/profiles/res_kvar_251_pu.csv)

New Loadshape.res_kw_8800_pu npts= 35040 interval=0.25 mult = (file=C:\SMARTDS-2-PyDSS-Visualizer/profiles/res_kw_8800_pu.csv) qmult = (file=C:\SMARTDS-2-PyDSS-Visualizer/profiles/res_kvar_8800_pu.csv)

New Loadshape.res_kw_5238_pu npts= 35040 interval=0.25 mult = (file=C:\SMARTDS-2-PyDSS-Visualizer/profiles/res_kw_5238_pu.csv) qmult = (file=C:\SMARTDS-2-PyDSS-Visualizer/profiles/res_kvar_5238_pu.csv)

New Loadshape.res_kw_4330_pu npts= 35040 interval=0.25 mult = (file=C:\SMARTDS-2-PyDSS-Visualizer/profiles/res_kw_4330_pu.csv) qmult = (file=C:\SMARTDS-2-PyDSS-Visualizer/profiles/res_kvar_4330_pu.csv)

New Loadshape.res_kw_13292_pu npts= 35040 interval=0.25 mult = (file=C:\SMARTDS-2-PyDSS-Visualizer/profiles/res_kw_13292_pu.csv) qmult = (file=C:\SMARTDS-2-PyDSS-Visualizer/profiles/res_kvar_13292_pu.csv)

New Loadshape.res_kw_7294_pu npts= 35040 interval=0.25 mult = (file=C:\SMARTDS-2-PyDSS-Visualizer/profiles/res_kw_7294_pu.csv) qmult = (file=C:\SMARTDS-2-PyDSS-Visualizer/profiles/res_kvar_7294_pu.csv)

New Loadshape.res_kw_9329_pu npts= 35040 interval=0.25 mult = (file=C:\SMARTDS-2-PyDSS-Visualizer/profiles/res_kw_9329_pu.csv) qmult = (file=C:\SMARTDS-2-PyDSS-Visualizer/profiles/res_kvar_9329_pu.csv)

New Loadshape.res_kw_10710_pu npts= 35040 interval=0.25 mult = (file=C:\SMARTDS-2-PyDSS-Visualizer/profiles/res_kw_10710_pu.csv) qmult = (file=C:\SMARTDS-2-PyDSS-Visualizer/profiles/res_kvar_10710_pu.csv)

New Loadshape.res_kw_14565_pu npts= 35040 interval=0.25 mult = (file=C:\SMARTDS-2-PyDSS-Visualizer/profiles/res_kw_14565_pu.csv) qmult = (file=C:\SMARTDS-2-PyDSS-Visualizer/profiles/res_kvar_14565_pu.csv)

New Loadshape.res_kw_9877_pu npts= 35040 interval=0.25 mult = (file=C:\SMARTDS-2-PyDSS-Visualizer/profiles/res_kw_9877_pu.csv) qmult = (file=C:\SMARTDS-2-PyDSS-Visualizer/profiles/res_kvar_9877_pu.csv)

New Loadshape.res_kw_651_pu npts= 35040 interval=0.25 mult = (file=C:\SMARTDS-2-PyDSS-Visualizer/profiles/res_kw_651_pu.csv) qmult = (file=C:\SMARTDS-2-PyDSS-Visualizer/profiles/res_kvar_651_pu.csv)

New Loadshape.res_kw_11269_pu npts= 35040 interval=0.25 mult = (file=C:\SMARTDS-2-PyDSS-Visualizer/profiles/res_kw_11269_pu.csv) qmult = (file=C:\SMARTDS-2-PyDSS-Visualizer/profiles/res_kvar_11269_pu.csv)

New Loadshape.res_kw_11966_pu npts= 35040 interval=0.25 mult = (file=C:\SMARTDS-2-PyDSS-Visualizer/profiles/res_kw_11966_pu.csv) qmult = (file=C:\SMARTDS-2-PyDSS-Visualizer/profiles/res_kvar_11966_pu.csv)

New Loadshape.res_kw_13880_pu npts= 35040 interval=0.25 mult = (file=C:\SMARTDS-2-PyDSS-Visualizer/profiles/res_kw_13880_pu.csv) qmult = (file=C:\SMARTDS-2-PyDSS-Visualizer/profiles/res_kvar_13880_pu.csv)

New Loadshape.res_kw_641_pu npts= 35040 interval=0.25 mult = (file=C:\SMARTDS-2-PyDSS-Visualizer/profiles/res_kw_641_pu.csv) qmult = (file=C:\SMARTDS-2-PyDSS-Visualizer/profiles/res_kvar_641_pu.csv)

New Loadshape.res_kw_2032_pu npts= 35040 interval=0.25 mult = (file=C:\SMARTDS-2-PyDSS-Visualizer/profiles/res_kw_2032_pu.csv) qmult = (file=C:\SMARTDS-2-PyDSS-Visualizer/profiles/res_kvar_2032_pu.csv)
